/*---------------------------------------------------------------------------*\
| =========                 |                                                 |
| \\      /  F ield         | OpenFOAM: The Open Source CFD Toolbox           |
|  \\    /   O peration     | Version:  2106                                  |
|   \\  /    A nd           | Website:  www.openfoam.com                      |
|    \\/     M anipulation  |                                                 |
\*---------------------------------------------------------------------------*/
Build  : _40a7d5d6-20210727 OPENFOAM=2106 patch=211215
Arch   : "LSB;label=32;scalar=64"
Exec   : compare_POD -parallel
Date   : Aug 05 2025
Time   : 09:02:49
Host   : LS-PF4RTR07
PID    : 2415477
I/O    : uncollated
Case   : /home/fregnault/Code/ITHACA-FV/tutorials/CFD/01bisPODCompare
nProcs : 4
Hosts  :
(
    (LS-PF4RTR07 4)
)
Pstream initialized with:
    floatTransfer      : 0
    nProcsSimpleSum    : 0
    commsType          : nonBlocking
    polling iterations : 0
trapFpe: Floating point exception trapping enabled (FOAM_SIGFPE).
fileModificationChecking : Monitoring run-time modified files using timeStampMaster (fileModificationSkew 5, maxFileModificationPolls 20)
allowSystemOperations : Allowing user-supplied system call operations

// * * * * * * * * * * * * * * * * * * * * * * * * * * * * * * * * * * * * * //
Create time

Create mesh for time = 1001

POD don't exist, performing a POD decomposition
nSnapshots =41
nSnapshots =41
nSnapshots =41
nSnapshots =41
startTime: 1
endTime: 41
nSnapshots: 41

Reading snapshot 1 for field U
Reading snapshot 2 for field U
Reading snapshot 3 for field U
Reading snapshot 4 for field U
Reading snapshot 5 for field U
Reading snapshot 6 for field U
Reading snapshot 7 for field U
Reading snapshot 8 for field U
Reading snapshot 9 for field U
Reading snapshot 10 for field U
Reading snapshot 11 for field U
Reading snapshot 12 for field U
Reading snapshot 13 for field U
Reading snapshot 14 for field U
Reading snapshot 15 for field U
Reading snapshot 16 for field U
Reading snapshot 17 for field U
Reading snapshot 18 for field U
Reading snapshot 19 for field U
Reading snapshot 20 for field U
Reading snapshot 21 for field U
Reading snapshot 22 for field U
Reading snapshot 23 for field U
Reading snapshot 24 for field U
Reading snapshot 25 for field U
Reading snapshot 26 for field U
Reading snapshot 27 for field U
Reading snapshot 28 for field U
Reading snapshot 29 for field U
Reading snapshot 30 for field U
Reading snapshot 31 for field U
Reading snapshot 32 for field U
Reading snapshot 33 for field U
Reading snapshot 34 for field U
Reading snapshot 35 for field U
Reading snapshot 36 for field U
Reading snapshot 37 for field U
Reading snapshot 38 for field U
Reading snapshot 39 for field U
Reading snapshot 40 for field U
Reading snapshot 41 for field U
1 before
1 before
1 before
0 before
0 before
0 before
Entering PODParameters 01--> FOAM Warning : 
    From static bool Foam::UPstream::init(int&, char**&, bool)
    in file UPstream.C at line 219
    MPI was already initialized - cannot perform MPI_Init
This could indicate an application programming error!
/*---------------------------------------------------------------------------*\
| =========                 |                                                 |
| \\      /  F ield         | OpenFOAM: The Open Source CFD Toolbox           |
|  \\    /   O peration     | Version:  2106                                  |
|   \\  /    A nd           | Website:  www.openfoam.com                      |
|    \\/     M anipulation  |                                                 |
\*---------------------------------------------------------------------------*/
Build  : _40a7d5d6-20210727 OPENFOAM=2106 patch=211215
Arch   : "LSB;label=32;scalar=64"
Exec   : compare_POD -parallel
Date   : Aug 05 2025
Time   : 09:03:02
Host   : LS-PF4RTR07
PID    : 2415477
--> FOAM Warning : 
    From Foam::entry* Foam::dictionary::add(Foam::entry*, bool)
    in file db/dictionary/dictionary.C at line 777
    Reading "JobInfo" at line 0 to 6
    Attempt to add entry startDate which already exists in dictionary "JobInfo"
--> FOAM Warning : 
    From Foam::entry* Foam::dictionary::add(Foam::entry*, bool)
    in file db/dictionary/dictionary.C at line 777
    Reading "JobInfo" at line 0 to 6
    Attempt to add entry startTime which already exists in dictionary "JobInfo"
--> FOAM Warning : 
    From Foam::entry* Foam::dictionary::add(Foam::entry*, bool)
    in file db/dictionary/dictionary.C at line 777
    Reading "JobInfo" at line 0 to 6
    Attempt to add entry userName which already exists in dictionary "JobInfo"
--> FOAM Warning : 
    From Foam::entry* Foam::dictionary::add(Foam::entry*, bool)
    in file db/dictionary/dictionary.C at line 777
    Reading "JobInfo" at line 0 to 6
    Attempt to add entry foamVersion which already exists in dictionary "JobInfo"
--> FOAM Warning : 
    From Foam::entry* Foam::dictionary::add(Foam::entry*, bool)
    in file db/dictionary/dictionary.C at line 777
    Reading "JobInfo" at line 0 to 6
    Attempt to add entry code which already exists in dictionary "JobInfo"
--> FOAM Warning : 
    From Foam::entry* Foam::dictionary::add(Foam::entry*, bool)
    in file db/dictionary/dictionary.C at line 777
    Reading "JobInfo" at line 0 to 6
    Attempt to add entry argList which already exists in dictionary "JobInfo"
--> FOAM Warning : 
    From Foam::entry* Foam::dictionary::add(Foam::entry*, bool)
    in file db/dictionary/dictionary.C at line 777
    Reading "JobInfo" at line 0 to 6
    Attempt to add entry currentDir which already exists in dictionary "JobInfo"
--> FOAM Warning : 
    From Foam::entry* Foam::dictionary::add(Foam::entry*, bool)
    in file db/dictionary/dictionary.C at line 777
    Reading "JobInfo" at line 0 to 6
    Attempt to add entry PPID which already exists in dictionary "JobInfo"
--> FOAM Warning : 
    From Foam::entry* Foam::dictionary::add(Foam::entry*, bool)
    in file db/dictionary/dictionary.C at line 777
    Reading "JobInfo" at line 0 to 6
    Attempt to add entry PGID which already exists in dictionary "JobInfo"
--> FOAM Warning : 
    From Foam::entry* Foam::dictionary::add(Foam::entry*, bool)
    in file db/dictionary/dictionary.C at line 777
    Reading "JobInfo" at line 0 to 6
    Attempt to add entry foamBuild which already exists in dictionary "JobInfo"
I/O    : uncollated
3 before
3 before
3 before
2 before
2 before
2 before
Entering PODParameters 11For proc n° 1argv[0] = compare_POD
For proc n° 1argv[1] = -parallel
Entering PODParameters 31For proc n° 3argv[0] = compare_POD
For proc n° 3argv[1] = -parallel
Case   : /home/fregnault/Code/ITHACA-FV/tutorials/CFD/01bisPODCompare
nProcs : 4
Hosts  :
(
    (LS-PF4RTR07 4)
)
Pstream initialized with:
    floatTransfer      : 0
    nProcsSimpleSum    : 0
    commsType          : nonBlocking
    polling iterations : 0
--> FOAM Warning : 
    From Foam::entry* Foam::dictionary::add(Foam::entry*, bool)
    in file db/dictionary/dictionary.C at line 777
    Reading "JobInfo" at line 0 to 6
    Attempt to add entry root which already exists in dictionary "JobInfo"
--> FOAM Warning : 
    From Foam::entry* Foam::dictionary::add(Foam::entry*, bool)
    in file db/dictionary/dictionary.C at line 777
    Reading "JobInfo" at line 0 to 6
    Attempt to add entry case which already exists in dictionary "JobInfo"
--> FOAM Warning : 
    From Foam::entry* Foam::dictionary::add(Foam::entry*, bool)
    in file db/dictionary/dictionary.C at line 777
    Reading "JobInfo" at line 0 to 6
    Attempt to add entry nProcs which already exists in dictionary "JobInfo"
--> FOAM Warning : 
    From Foam::entry* Foam::dictionary::add(Foam::entry*, bool)
    in file db/dictionary/dictionary.C at line 777
    Reading "JobInfo" at line 0 to 6
    Attempt to add entry hosts which already exists in dictionary "JobInfo"
fileModificationChecking : Monitoring run-time modified files using timeStampMaster (fileModificationSkew 5, maxFileModificationPolls 20)
allowSystemOperations : Allowing user-supplied system call operations

// * * * * * * * * * * * * * * * * * * * * * * * * * * * * * * * * * * * * * //
For proc n° 0argv[0] = compare_POD
For proc n° 0argv[1] = -parallel
Entering PODParameters 21For proc n° 2argv[0] = compare_POD
For proc n° 2argv[1] = -parallel
For proc n° 0 : mesh read
For proc n° 1 : mesh read
For proc n° 3 : mesh read
For proc n° 2 : mesh read
Parallel version of casenameData
.//processor0/1For proc n° 0 : parameters loaded
.//processor2/1For proc n° 2 : parameters loaded
.//processor3/1For proc n° 3 : parameters loaded
.//processor1/1For proc n° 1 : parameters loaded
runTimeData
"././/processor0/"
1001
template field U passed
For proc n° 0 : template field initialised
runTimeData in PODParams
1
InitialTime and FinalTime
1001 & 1001.2
For proc n° 0 : start and final time loaded
For proc n° 3 : template field initialised
For proc n° 3 : start and final time loaded
For proc n° 2 : template field initialised
For proc n° 2 : start and final time loaded
For proc n° 1 : template field initialised
For proc n° 1 : start and final time loaded
For proc n° 3 : control and transport loaded
For proc n° 2 : control and transport loaded
For proc n° 3 : get line simulationType
For proc n° 3 : while passed
For proc n° 3 : set simulation passed
For proc n° 3 : no DEIM
Exiting PODParameters 31---------------------------------------------------------
For proc n° 2 : get line simulationType
For proc n° 2 : while passed
For proc n° 2 : set simulation passed
For proc n° 2 : no DEIM
Exiting PODParameters 21---------------------------------------------------------
2 after
2 after
2 after
3 after
3 after
3 after
For proc n° 0 : control and transport loaded
For proc n° 0 : get line simulationType
For proc n° 0 : while passed
For proc n° 0 : set simulation passed
-----------------0---------------------------
Simulation type:"laminar"
DNS simulation will be performed
For proc n° 0 : no DEIM
For proc n° 1 : control and transport loaded
For proc n° 1 : get line simulationType
For proc n° 1 : while passed
For proc n° 1 : set simulation passed
For proc n° 1 : no DEIM
Exiting PODParameters 01---------------------------------------------------------
0 after
0 after
0 after
1
Exiting PODParameters 11---------------------------------------------------------
1 after
1 after
1 after
nSnapshot at PODtemplate instanciation
41
casenameData at PODtemplate instanciation
".//processor0/"
runTime at PODtemplate instanciation

42
(
0	constant
1001	1001
1001	1001.005
1001.01	1001.01
1001.01	1001.015
1001.02	1001.02
1001.02	1001.025
1001.03	1001.03
1001.03	1001.035
1001.04	1001.04
1001.04	1001.045
1001.05	1001.05
1001.05	1001.055
1001.06	1001.06
1001.07	1001.065
1001.07	1001.07
1001.08	1001.075
1001.08	1001.08
1001.09	1001.085
1001.09	1001.09
1001.1	1001.095
1001.1	1001.1
1001.11	1001.105
1001.11	1001.11
1001.12	1001.115
1001.12	1001.12
1001.12	1001.125
1001.13	1001.13
1001.13	1001.135
1001.14	1001.14
1001.14	1001.145
1001.15	1001.15
1001.15	1001.155
1001.16	1001.16
1001.16	1001.165
1001.17	1001.17
1001.17	1001.175
1001.18	1001.18
1001.18	1001.185
1001.19	1001.19
1001.2	1001.195
1001.2	1001.2
)

-------------------------------------------------------------------------------------------
The POD is performing with the following parameters :
Field : U
Number of modes : 4
POD Hilbert space : L2
Weight for the boundary conditions (0 for L2 POD Hilbert space) : 0
Patch for the boundary conditions(inlet by default) used in L2wBC : inlet
start time : 1
End time : 41
Number of snapshots : 41
Number of test snapshots : 1
Number of blocks : 4
Centered datas or not : 0 (1 centered, 0 not centered)
Name of eigensolver used : spectra
Results folder : ITHACAoutput

Inside the buildCovMatrix
looking for covMatrixU_temp_*.npy in ./ITHACAoutput/CovMatrices/
Computing the covariance matrix of the U field
q = 10
r = 1
nSnapshot = 41
nBlocks = 4

casenameData ".//processor0/"
l_startTime 1
i 0
q 10
######### 0 ####### Parallel Reading the Data for U #########
/home/fregnault/Code/ITHACA-FV/tutorials/CFD/01bisPODCompare
".//processor0/"
-1 & 42
First and last snapshot number
-1
12
Proc N=2| At the 1th looking for 1001
Proc N=2| << at .//processor2/
Proc N=3| At the 1th looking for 1001
Proc N=3| << at .//processor3/
Proc N=1| At the 1th looking for 1001
Proc N=1| << at .//processor1/
Proc N=0| At the 1th looking for 1001
Proc N=0| << at .//processor0/
0 This should not be constant :1001
Proc N=1| At the 2th looking for 1001.005
Proc N=1| << at .//processor1/
Proc N=2| At the 2th looking for 1001.005
Proc N=2| << at .//processor2/
Proc N=3| At the 2th looking for 1001.005
Proc N=3| << at .//processor3/
 18% [||||||||||                                                  ]Proc N=0| At the 2th looking for 1001.005
Proc N=0| << at .//processor0/
0 This should not be constant :1001.005
Proc N=1| At the 3th looking for 1001.01
Proc N=1| << at .//processor1/
Proc N=3| At the 3th looking for 1001.01
Proc N=3| << at .//processor3/
Proc N=2| At the 3th looking for 1001.01
Proc N=2| << at .//processor2/
 27% [||||||||||||||||                                            ]Proc N=0| At the 3th looking for 1001.01
Proc N=0| << at .//processor0/
0 This should not be constant :1001.01
Proc N=3| At the 4th looking for 1001.015
Proc N=3| << at .//processor3/
Proc N=1| At the 4th looking for 1001.015
Proc N=1| << at .//processor1/
 36% [|||||||||||||||||||||                                       ]Proc N=0| At the 4th looking for 1001.015
Proc N=0| << at .//processor0/
0 This should not be constant :1001.015
Proc N=2| At the 4th looking for 1001.015
Proc N=2| << at .//processor2/
Proc N=3| At the 5th looking for 1001.02
Proc N=3| << at .//processor3/
Proc N=1| At the 5th looking for 1001.02
Proc N=1| << at .//processor1/
 45% [|||||||||||||||||||||||||||                                 ]Proc N=0| At the 5th looking for 1001.02
Proc N=0| << at .//processor0/
0 This should not be constant :1001.02
Proc N=2| At the 5th looking for 1001.02
Proc N=2| << at .//processor2/
Proc N=3| At the 6th looking for 1001.025
Proc N=3| << at .//processor3/
Proc N=1| At the 6th looking for 1001.025
Proc N=1| << at .//processor1/
 54% [||||||||||||||||||||||||||||||||                            ]Proc N=0| At the 6th looking for 1001.025
Proc N=0| << at .//processor0/
0 This should not be constant :1001.025
Proc N=2| At the 6th looking for 1001.025
Proc N=2| << at .//processor2/
Proc N=3| At the 7th looking for 1001.03
Proc N=3| << at .//processor3/
Proc N=1| At the 7th looking for 1001.03
Proc N=1| << at .//processor1/
 63% [||||||||||||||||||||||||||||||||||||||                      ]Proc N=0| At the 7th looking for 1001.03
Proc N=0| << at .//processor0/
0 This should not be constant :1001.03
Proc N=2| At the 7th looking for 1001.03
Proc N=2| << at .//processor2/
Proc N=3| At the 8th looking for 1001.035
Proc N=3| << at .//processor3/
Proc N=1| At the 8th looking for 1001.035
Proc N=1| << at .//processor1/
 72% [|||||||||||||||||||||||||||||||||||||||||||                 ]Proc N=0| At the 8th looking for 1001.035
Proc N=0| << at .//processor0/
0 This should not be constant :1001.035
Proc N=2| At the 8th looking for 1001.035
Proc N=2| << at .//processor2/
Proc N=3| At the 9th looking for 1001.04
Proc N=3| << at .//processor3/
Proc N=1| At the 9th looking for 1001.04
Proc N=1| << at .//processor1/
 81% [|||||||||||||||||||||||||||||||||||||||||||||||||           ]Proc N=0| At the 9th looking for 1001.04
Proc N=0| << at .//processor0/
0 This should not be constant :1001.04
Proc N=2| At the 9th looking for 1001.04
Proc N=2| << at .//processor2/
Proc N=3| At the 10th looking for 1001.045
Proc N=3| << at .//processor3/
Proc N=1| At the 10th looking for 1001.045
Proc N=1| << at .//processor1/
 90% [||||||||||||||||||||||||||||||||||||||||||||||||||||||      ]Proc N=0| At the 10th looking for 1001.045
Proc N=0| << at .//processor0/
0 This should not be constant :1001.045
Proc N=2| At the 10th looking for 1001.045
Proc N=2| << at .//processor2/
100% [||||||||||||||||||||||||||||||||||||||||||||||||||||||||||||]
Adding the triangular block [0:9]x[0:9] to the covariance matrix
in dot_product_POD getMassmatrix
in dot_product, if L2
In getmassmatrix 1234
In nModes == 0
243.192 243.195 243.196 243.196 243.196 243.197 243.197 243.197 243.198 243.198
243.195 243.199 243.199 243.199   243.2   243.2   243.2 243.201 243.201 243.201
243.196 243.199 243.199   243.2   243.2   243.2 243.201 243.201 243.201 243.202
243.196 243.199   243.2   243.2   243.2 243.201 243.201 243.201 243.202 243.202
243.196   243.2   243.2   243.2 243.201 243.201 243.201 243.202 243.202 243.202
243.197   243.2   243.2 243.201 243.201 243.201 243.202 243.202 243.202 243.203
243.197   243.2 243.201 243.201 243.201 243.202 243.202 243.202 243.203 243.203
243.197 243.201 243.201 243.201 243.202 243.202 243.202 243.203 243.203 243.203
243.198 243.201 243.201 243.202 243.202 243.202 243.203 243.203 243.203 243.204
1020.31  1020.3  1020.3 1020.29 1020.28 1020.26 1020.25 1020.24 1020.22 1020.21
 1020.3  1020.3 1020.29 1020.28 1020.27 1020.26 1020.25 1020.24 1020.22 1020.21
 1020.3 1020.29 1020.28 1020.28 1020.27 1020.26 1020.25 1020.24 1020.23 1020.21
1020.29 1020.28 1020.28 1020.27 1020.27 1020.26 1020.25 1020.24 1020.23 1020.21
1020.28 1020.27 1020.27 1020.27 1020.26 1020.25 1020.25 1020.24 1020.23 1020.22
1020.26 1020.26 1020.26 1020.26 1020.25 1020.25 1020.24 1020.23 1020.22 1020.21
1020.25 1020.25 1020.25 1020.25 1020.25 1020.24 1020.24 1020.23 1020.22 1020.21
1020.24 1020.24 1020.24 1020.24 1020.24 1020.23 1020.23 1020.22 1020.22 1020.21
1020.22 1020.22 1020.23 1020.23 1020.23 1020.22 1020.22 1020.22 1020.21 1020.21
Computation passed
Reducing
 15.948 15.9522 15.9573 15.9624 15.9673 15.9722 15.9771 15.9818 15.9865 15.9911
15.9522 15.9565 15.9617 15.9668 15.9719 15.9769 15.9818 15.9866 15.9913  15.996
15.9573 15.9617  15.967 15.9722 15.9773 15.9824 15.9874 15.9923 15.9971 16.0019
15.9624 15.9668 15.9722 15.9775 15.9827 15.9878 15.9929 15.9979 16.0028 16.0076
15.9673 15.9719 15.9773 15.9827  15.988 15.9932 15.9983 16.0034 16.0084 16.0133
15.9722 15.9769 15.9824 15.9878 15.9932 15.9985 16.0037 16.0088 16.0139 16.0189
15.9771 15.9818 15.9874 15.9929 15.9983 16.0037  16.009 16.0142 16.0194 16.0244
15.9818 15.9866 15.9923 15.9979 16.0034 16.0088 16.0142 16.0195 16.0248 16.0299
15.9865 15.9913 15.9971 16.0028 16.0084 16.0139 16.0194 16.0248 16.0301 16.0353
7.10854 7.10906 7.10961 7.11014 7.11067 7.11119 7.11169 7.11219 7.11268 7.11315
7.10906  7.1096 7.11016 7.11071 7.11126 7.11179 7.11231 7.11283 7.11333 7.11383
7.10961 7.11016 7.11074 7.11131 7.11187 7.11242 7.11296 7.11349 7.11401 7.11453
7.11014 7.11071 7.11131  7.1119 7.11248 7.11304  7.1136 7.11415 7.11469 7.11522
7.11067 7.11126 7.11187 7.11248 7.11307 7.11366 7.11423  7.1148 7.11535  7.1159
7.11119 7.11179 7.11242 7.11304 7.11366 7.11426 7.11485 7.11543 7.11601 7.11657
7.11169 7.11231 7.11296  7.1136 7.11423 7.11485 7.11546 7.11606 7.11665 7.11723
7.11219 7.11283 7.11349 7.11415  7.1148 7.11543 7.11606 7.11668 7.11729 7.11788
7.11268 7.11333 7.11401 7.11469 7.11535 7.11601 7.11665 7.11729 7.11791 7.11853
15.9911  15.996 16.0019 16.0076 16.0133 16.0189 16.0244 16.0299 16.0353 16.04061Reduced
reduce passed

casenameData ".//processor0/"
l_startTime 1
i 1
q 10
######### 0 ####### Parallel Reading the Data for U #########
/home/fregnault/Code/ITHACA-FV/tutorials/CFD/01bisPODCompare
".//processor0/"
9 & 42
First and last snapshot number
9
12
243.198 243.201 243.202 243.202 243.202 243.203 243.203 243.203 243.204 243.2041Proc N=3| At the 11th looking for 1001.05
Proc N=3| << at .//processor3/
7.11315 7.11383 7.11453 7.11522  7.1159 7.11657 7.11723 7.11788 7.11853 7.119161Proc N=2| At the 11th looking for 1001.05
Proc N=2| << at .//processor2/
Proc N=0| At the 11th looking for 1001.05
Proc N=0| << at .//processor0/
0 This should not be constant :1001.05
1020.21 1020.21 1020.21 1020.21 1020.22 1020.21 1020.21 1020.21 1020.21  1020.21Proc N=1| At the 11th looking for 1001.05
Proc N=1| << at .//processor1/
Proc N=3| At the 12th looking for 1001.055
Proc N=3| << at .//processor3/
Proc N=1| At the 12th looking for 1001.055
Proc N=1| << at .//processor1/
 57% [||||||||||||||||||||||||||||||||||                          ]Proc N=0| At the 12th looking for 1001.055
Proc N=0| << at .//processor0/
0 This should not be constant :1001.055
Proc N=2| At the 12th looking for 1001.055
Proc N=2| << at .//processor2/
Proc N=1| At the 13th looking for 1001.06
Proc N=1| << at .//processor1/
Proc N=3| At the 13th looking for 1001.06
Proc N=3| << at .//processor3/
 61% [|||||||||||||||||||||||||||||||||||||                       ]Proc N=0| At the 13th looking for 1001.06
Proc N=0| << at .//processor0/
0 This should not be constant :1001.06
Proc N=2| At the 13th looking for 1001.06
Proc N=2| << at .//processor2/
Proc N=1| At the 14th looking for 1001.065
Proc N=1| << at .//processor1/
Proc N=3| At the 14th looking for 1001.065
Proc N=3| << at .//processor3/
 66% [||||||||||||||||||||||||||||||||||||||||                    ]Proc N=0| At the 14th looking for 1001.065
Proc N=0| << at .//processor0/
0 This should not be constant :1001.065
Proc N=2| At the 14th looking for 1001.065
Proc N=2| << at .//processor2/
Proc N=1| At the 15th looking for 1001.07
Proc N=1| << at .//processor1/
Proc N=3| At the 15th looking for 1001.07
Proc N=3| << at .//processor3/
 71% [||||||||||||||||||||||||||||||||||||||||||                  ]Proc N=0| At the 15th looking for 1001.07
Proc N=0| << at .//processor0/
0 This should not be constant :1001.07
Proc N=2| At the 15th looking for 1001.07
Proc N=2| << at .//processor2/
Proc N=1| At the 16th looking for 1001.075
Proc N=1| << at .//processor1/
Proc N=3| At the 16th looking for 1001.075
Proc N=3| << at .//processor3/
 76% [|||||||||||||||||||||||||||||||||||||||||||||               ]Proc N=0| At the 16th looking for 1001.075
Proc N=0| << at .//processor0/
0 This should not be constant :1001.075
Proc N=2| At the 16th looking for 1001.075
Proc N=2| << at .//processor2/
Proc N=1| At the 17th looking for 1001.08
Proc N=1| << at .//processor1/
Proc N=3| At the 17th looking for 1001.08
Proc N=3| << at .//processor3/
 80% [||||||||||||||||||||||||||||||||||||||||||||||||            ]Proc N=0| At the 17th looking for 1001.08
Proc N=0| << at .//processor0/
0 This should not be constant :1001.08
Proc N=2| At the 17th looking for 1001.08
Proc N=2| << at .//processor2/
Proc N=1| At the 18th looking for 1001.085
Proc N=1| << at .//processor1/
Proc N=3| At the 18th looking for 1001.085
Proc N=3| << at .//processor3/
 85% [|||||||||||||||||||||||||||||||||||||||||||||||||||         ]Proc N=0| At the 18th looking for 1001.085
Proc N=0| << at .//processor0/
0 This should not be constant :1001.085
Proc N=2| At the 18th looking for 1001.085
Proc N=2| << at .//processor2/
Proc N=1| At the 19th looking for 1001.09
Proc N=1| << at .//processor1/
Proc N=3| At the 19th looking for 1001.09
Proc N=3| << at .//processor3/
 90% [||||||||||||||||||||||||||||||||||||||||||||||||||||||      ]Proc N=0| At the 19th looking for 1001.09
Proc N=0| << at .//processor0/
0 This should not be constant :1001.09
Proc N=2| At the 19th looking for 1001.09
Proc N=2| << at .//processor2/
Proc N=1| At the 20th looking for 1001.095
Proc N=1| << at .//processor1/
Proc N=3| At the 20th looking for 1001.095
Proc N=3| << at .//processor3/
 95% [|||||||||||||||||||||||||||||||||||||||||||||||||||||||||   ]Proc N=0| At the 20th looking for 1001.095
Proc N=0| << at .//processor0/
0 This should not be constant :1001.095
Proc N=2| At the 20th looking for 1001.095
Proc N=2| << at .//processor2/
100% [||||||||||||||||||||||||||||||||||||||||||||||||||||||||||||]
Adding the triangular block [10:19]x[10:19] to the covariance matrix
in dot_product_POD getMassmatrix
in dot_product, if L2
In getmassmatrix 1234
In nModes == 0
1020.19 1020.18 1020.17 1020.16 1020.15 1020.14 1020.13 1020.11  1020.1 1020.08
1020.18 1020.18 1020.17 1020.16 1020.15 1020.14 1020.13 1020.12  1020.1 1020.09
1020.17 1020.17 1020.16 1020.16 1020.15 1020.14 1020.13 1020.12  1020.1 1020.09
1020.16 1020.16 1020.16 1020.15 1020.14 1020.14 1020.13 1020.12  1020.1 1020.09
1020.15 1020.15 1020.15 1020.14 1020.14 1020.13 1020.12 1020.11  1020.1 1020.09
1020.14 1020.14 1020.14 1020.14 1020.13 1020.13 1020.12 1020.11  1020.1 1020.09
1020.13 1020.13 1020.13 1020.13 1020.12 1020.12 1020.11 1020.11  1020.1 1020.09
1020.11 1020.12 1020.12 1020.12 1020.11 1020.11 1020.11  1020.1 1020.09 1020.09
 1020.1  1020.1  1020.1  1020.1  1020.1  1020.1  1020.1 1020.09 1020.09 1020.08
Computation passed
Reducing
16.0511 16.0564 16.0615 16.0666 16.0716 16.0766 16.0814 16.0862 16.0909 16.0955
16.0564 16.0617 16.0669 16.0721 16.0772 16.0822 16.0871  16.092 16.0968 16.1015
16.0615 16.0669 16.0722 16.0775 16.0826 16.0877 16.0927 16.0977 16.1025 16.1073
16.0666 16.0721 16.0775 16.0828  16.088 16.0932 16.0983 16.1033 16.1083 16.1131
16.0716 16.0772 16.0826  16.088 16.0934 16.0986 16.1038 16.1089 16.1139 16.1188
16.0766 16.0822 16.0877 16.0932 16.0986 16.1039 16.1092 16.1143 16.1194 16.1245
16.0814 16.0871 16.0927 16.0983 16.1038 16.1092 16.1145 16.1197 16.1249   16.13
16.0862  16.092 16.0977 16.1033 16.1089 16.1143 16.1197 16.1251 16.1303 16.1355
16.0909 16.0968 16.1025 16.1083 16.1139 16.1194 16.1249 16.1303 16.1356 16.1409
243.204 243.205 243.205 243.205 243.206 243.206 243.206 243.206 243.207 243.207
243.205 243.205 243.205 243.206 243.206 243.206 243.207 243.207 243.207 243.207
243.205 243.205 243.206 243.206 243.206 243.207 243.207 243.207 243.207 243.208
243.205 243.206 243.206 243.206 243.207 243.207 243.207 243.207 243.208 243.208
243.206 243.206 243.206 243.207 243.207 243.207 243.207 243.208 243.208 243.208
243.206 243.206 243.207 243.207 243.207 243.207 243.208 243.208 243.208 243.209
243.206 243.207 243.207 243.207 243.207 243.208 243.208 243.208 243.209 243.209
243.206 243.207 243.207 243.207 243.208 243.208 243.208 243.209 243.209 243.209
243.207 243.207 243.207 243.208 243.208 243.208 243.209 243.209 243.209 243.209
16.0955 16.1015 16.1073 16.1131 16.1188 16.1245   16.13 16.1355 16.1409 16.14621Reduced
reduce passed
7.12042 7.12105 7.12167 7.12228 7.12288 7.12347 7.12405 7.12462 7.12518 7.12572
7.12105  7.1217 7.12234 7.12297 7.12359 7.12419 7.12479 7.12537 7.12595 7.12651
7.12167 7.12234   7.123 7.12364 7.12428  7.1249 7.12551 7.12612 7.12671 7.12729
7.12228 7.12297 7.12364  7.1243 7.12496  7.1256 7.12623 7.12685 7.12746 7.12806
7.12288 7.12359 7.12428 7.12496 7.12563 7.12629 7.12694 7.12758  7.1282 7.12882
7.12347 7.12419  7.1249  7.1256 7.12629 7.12697 7.12763 7.12829 7.12893 7.12957
7.12405 7.12479 7.12551 7.12623 7.12694 7.12763 7.12832 7.12899 7.12966 7.13031
7.12462 7.12537 7.12612 7.12685 7.12758 7.12829 7.12899 7.12969 7.13037 7.13104
7.12518 7.12595 7.12671 7.12746  7.1282 7.12893 7.12966 7.13037 7.13107 7.13176

Entering 2nd read_fields with ".//processor0/"
######### 0 ####### Parallel Reading the Data for U #########
/home/fregnault/Code/ITHACA-FV/tutorials/CFD/01bisPODCompare
".//processor0/"
-1 & 42
First and last snapshot number
-1
12
243.207 243.207 243.208 243.208 243.208 243.209 243.209 243.209 243.209  243.211Proc N=3| At the 1th looking for 1001
Proc N=3| << at .//processor3/
7.12572 7.12651 7.12729 7.12806 7.12882 7.12957 7.13031 7.13104 7.13176 7.132461Proc N=2| At the 1th looking for 1001
Proc N=2| << at .//processor2/
Proc N=0| At the 1th looking for 1001
Proc N=0| << at .//processor0/
0 This should not be constant :1001
1020.08 1020.09 1020.09 1020.09 1020.09 1020.09 1020.09 1020.09 1020.08 1020.081Proc N=1| At the 1th looking for 1001
Proc N=1| << at .//processor1/
Proc N=3| At the 2th looking for 1001.005
Proc N=3| << at .//processor3/
Proc N=1| At the 2th looking for 1001.005
Proc N=1| << at .//processor1/
 18% [||||||||||                                                  ]Proc N=0| At the 2th looking for 1001.005
Proc N=0| << at .//processor0/
0 This should not be constant :1001.005
Proc N=2| At the 2th looking for 1001.005
Proc N=2| << at .//processor2/
Proc N=3| At the 3th looking for 1001.01
Proc N=3| << at .//processor3/
Proc N=1| At the 3th looking for 1001.01
Proc N=1| << at .//processor1/
Proc N=2| At the 3th looking for 1001.01
Proc N=2| << at .//processor2/
 27% [||||||||||||||||                                            ]Proc N=0| At the 3th looking for 1001.01
Proc N=0| << at .//processor0/
0 This should not be constant :1001.01
Proc N=1| At the 4th looking for 1001.015
Proc N=1| << at .//processor1/
Proc N=3| At the 4th looking for 1001.015
Proc N=3| << at .//processor3/
Proc N=2| At the 4th looking for 1001.015
Proc N=2| << at .//processor2/
 36% [|||||||||||||||||||||                                       ]Proc N=0| At the 4th looking for 1001.015
Proc N=0| << at .//processor0/
0 This should not be constant :1001.015
Proc N=1| At the 5th looking for 1001.02
Proc N=1| << at .//processor1/
Proc N=3| At the 5th looking for 1001.02
Proc N=3| << at .//processor3/
Proc N=2| At the 5th looking for 1001.02
Proc N=2| << at .//processor2/
 45% [|||||||||||||||||||||||||||                                 ]Proc N=0| At the 5th looking for 1001.02
Proc N=0| << at .//processor0/
0 This should not be constant :1001.02
Proc N=1| At the 6th looking for 1001.025
Proc N=1| << at .//processor1/
Proc N=3| At the 6th looking for 1001.025
Proc N=3| << at .//processor3/
Proc N=2| At the 6th looking for 1001.025
Proc N=2| << at .//processor2/
 54% [||||||||||||||||||||||||||||||||                            ]Proc N=0| At the 6th looking for 1001.025
Proc N=0| << at .//processor0/
0 This should not be constant :1001.025
Proc N=1| At the 7th looking for 1001.03
Proc N=1| << at .//processor1/
Proc N=3| At the 7th looking for 1001.03
Proc N=3| << at .//processor3/
Proc N=2| At the 7th looking for 1001.03
Proc N=2| << at .//processor2/
 63% [||||||||||||||||||||||||||||||||||||||                      ]Proc N=0| At the 7th looking for 1001.03
Proc N=0| << at .//processor0/
0 This should not be constant :1001.03
Proc N=1| At the 8th looking for 1001.035
Proc N=1| << at .//processor1/
Proc N=3| At the 8th looking for 1001.035
Proc N=3| << at .//processor3/
Proc N=2| At the 8th looking for 1001.035
Proc N=2| << at .//processor2/
 72% [|||||||||||||||||||||||||||||||||||||||||||                 ]Proc N=0| At the 8th looking for 1001.035
Proc N=0| << at .//processor0/
0 This should not be constant :1001.035
Proc N=1| At the 9th looking for 1001.04
Proc N=1| << at .//processor1/
Proc N=3| At the 9th looking for 1001.04
Proc N=3| << at .//processor3/
 81% [|||||||||||||||||||||||||||||||||||||||||||||||||           ]Proc N=0| At the 9th looking for 1001.04
Proc N=0| << at .//processor0/
0 This should not be constant :1001.04
Proc N=2| At the 9th looking for 1001.04
Proc N=2| << at .//processor2/
Proc N=1| At the 10th looking for 1001.045
Proc N=1| << at .//processor1/
Proc N=3| At the 10th looking for 1001.045
Proc N=3| << at .//processor3/
 90% [||||||||||||||||||||||||||||||||||||||||||||||||||||||      ]Proc N=0| At the 10th looking for 1001.045
Proc N=0| << at .//processor0/
0 This should not be constant :1001.045
Proc N=2| At the 10th looking for 1001.045
Proc N=2| << at .//processor2/
100% [||||||||||||||||||||||||||||||||||||||||||||||||||||||||||||]
Adding the square block [10:19]x[0:9] to the covariance matrix
in dot_product_POD getMassmatrix
in dot_product, if L2
In getmassmatrix 1234
In nModes == 0
1020.19 1020.19  1020.2  1020.2  1020.2  1020.2  1020.2  1020.2  1020.2 1020.19
1020.17 1020.18 1020.18 1020.19 1020.19 1020.19 1020.19 1020.19 1020.19 1020.19
1020.15 1020.16 1020.16 1020.17 1020.17 1020.18 1020.18 1020.18 1020.18 1020.18
1020.13 1020.14 1020.14 1020.15 1020.16 1020.16 1020.16 1020.17 1020.17 1020.17
1020.11 1020.12 1020.12 1020.13 1020.14 1020.14 1020.15 1020.15 1020.15 1020.15
1020.08 1020.09  1020.1 1020.11 1020.12 1020.13 1020.13 1020.14 1020.14 1020.14
1020.06 1020.07 1020.08 1020.09  1020.1 1020.11 1020.11 1020.12 1020.12 1020.13
1020.03 1020.05 1020.06 1020.07 1020.08 1020.09  1020.1  1020.1 1020.11 1020.11
1020.01 1020.02 1020.03 1020.05 1020.06 1020.07 1020.08 1020.08 1020.09  1020.1
243.198 243.201 243.202 243.202 243.203 243.203 243.203 243.203 243.204 243.204
243.199 243.202 243.202 243.202 243.203 243.203 243.203 243.204 243.204 243.204
243.199 243.202 243.202 243.203 243.203 243.203 243.204 243.204 243.204 243.205
243.199 243.202 243.203 243.203 243.203 243.204 243.204 243.204 243.205 243.205
243.199 243.203 243.203 243.203 243.204 243.204 243.204 243.205 243.205 243.205
  243.2 243.203 243.203 243.204 243.204 243.204 243.205 243.205 243.205 243.206
  243.2 243.203 243.204 243.204 243.204 243.205 243.205 243.205 243.206 243.206
  243.2 243.203 243.204 243.204 243.205 243.205 243.205 243.206 243.206 243.206
243.201 243.204 243.204 243.204 243.205 243.205 243.205 243.206 243.206 243.206
Computation passed
Reducing
15.9956 16.0006 16.0065 16.0124 16.0181 16.0238 16.0294  16.035 16.0404 16.0458
16.0001 16.0052 16.0112 16.0171 16.0229 16.0287 16.0344   16.04 16.0455  16.051
16.0045 16.0096 16.0157 16.0217 16.0276 16.0334 16.0392 16.0449 16.0505 16.0561
16.0088  16.014 16.0202 16.0262 16.0322 16.0381  16.044 16.0498 16.0555 16.0611
 16.013 16.0183 16.0245 16.0307 16.0368 16.0428 16.0487 16.0545 16.0603  16.066
16.0172 16.0226 16.0289 16.0351 16.0412 16.0473 16.0533 16.0592 16.0651 16.0709
16.0213 16.0267 16.0331 16.0394 16.0456 16.0518 16.0579 16.0639 16.0698 16.0756
16.0253 16.0308 16.0373 16.0436 16.0499 16.0562 16.0623 16.0684 16.0744 16.0803
16.0292 16.0348 16.0414 16.0478 16.0542 16.0605 16.0667 16.0729  16.079  16.085
7.11362 7.11431 7.11503 7.11573 7.11643 7.11712  7.1178 7.11847 7.11913 7.11978
7.11408 7.11478 7.11552 7.11624 7.11696 7.11767 7.11836 7.11905 7.11973  7.1204
7.11452 7.11525   7.116 7.11674 7.11747  7.1182 7.11891 7.11962 7.12031   7.121
7.11496  7.1157 7.11647 7.11723 7.11798 7.11872 7.11945 7.12017 7.12089 7.12159
7.11538 7.11614 7.11693  7.1177 7.11847 7.11923 7.11998 7.12072 7.12145 7.12217
 7.1158 7.11657 7.11738 7.11817 7.11896 7.11973  7.1205 7.12126 7.12201 7.12274
 7.1162 7.11699 7.11781 7.11863 7.11943 7.12022 7.12101 7.12178 7.12255  7.1233
7.11659  7.1174 7.11824 7.11907 7.11989  7.1207 7.12151  7.1223 7.12308 7.12385
7.11698  7.1178 7.11866 7.11951 7.12034 7.12117 7.12199  7.1228  7.1236 7.12439
16.0331 16.0388 16.0454 16.0519 16.0584 16.0647 16.0711 16.0773 16.0834 16.08951Reduced
reduce passed

casenameData ".//processor0/"
l_startTime 1
i 2
q 10
######### 0 ####### Parallel Reading the Data for U #########
/home/fregnault/Code/ITHACA-FV/tutorials/CFD/01bisPODCompare
".//processor0/"
7.11735 7.11819 7.11907 7.11993 7.12078 7.12163 7.12247 7.12329 7.12411 7.124921Proc N=2| At the 21th looking for 1001.1
Proc N=2| << at .//processor2/
19 & 42
First and last snapshot number
19
12
243.201 243.204 243.204 243.205 243.205 243.205 243.206 243.206 243.206 243.2071Proc N=3| At the 21th looking for 1001.1
Proc N=3| << at .//processor3/
Proc N=0| At the 21th looking for 1001.1
Proc N=0| << at .//processor0/
1019.98 1019.99 1020.01 1020.02 1020.03 1020.04 1020.05 1020.06 1020.07 1020.081Proc N=1| At the 21th looking for 1001.1
Proc N=1| << at .//processor1/
0 This should not be constant :1001.1
Proc N=3| At the 22th looking for 1001.105
Proc N=3| << at .//processor3/
 70% [||||||||||||||||||||||||||||||||||||||||||                  ]Proc N=0| At the 22th looking for 1001.105
Proc N=0| << at .//processor0/
0 This should not be constant :1001.105
Proc N=1| At the 22th looking for 1001.105
Proc N=1| << at .//processor1/
Proc N=2| At the 22th looking for 1001.105
Proc N=2| << at .//processor2/
Proc N=3| At the 23th looking for 1001.11
Proc N=3| << at .//processor3/
 74% [||||||||||||||||||||||||||||||||||||||||||||                ]Proc N=0| At the 23th looking for 1001.11
Proc N=0| << at .//processor0/
0 This should not be constant :1001.11
Proc N=2| At the 23th looking for 1001.11
Proc N=2| << at .//processor2/
Proc N=1| At the 23th looking for 1001.11
Proc N=1| << at .//processor1/
 77% [||||||||||||||||||||||||||||||||||||||||||||||              ]Proc N=0| At the 24th looking for 1001.115
Proc N=0| << at .//processor0/
0 This should not be constant :1001.115
Proc N=3| At the 24th looking for 1001.115
Proc N=3| << at .//processor3/
Proc N=1| At the 24th looking for 1001.115
Proc N=1| << at .//processor1/
Proc N=2| At the 24th looking for 1001.115
Proc N=2| << at .//processor2/
Proc N=3| At the 25th looking for 1001.12
Proc N=3| << at .//processor3/
 80% [||||||||||||||||||||||||||||||||||||||||||||||||            ]Proc N=0| At the 25th looking for 1001.12
Proc N=0| << at .//processor0/
0 This should not be constant :1001.12
Proc N=1| At the 25th looking for 1001.12
Proc N=1| << at .//processor1/
Proc N=2| At the 25th looking for 1001.12
Proc N=2| << at .//processor2/
Proc N=3| At the 26th looking for 1001.125
Proc N=3| << at .//processor3/
 83% [||||||||||||||||||||||||||||||||||||||||||||||||||          ]Proc N=0| At the 26th looking for 1001.125
Proc N=0| << at .//processor0/
0 This should not be constant :1001.125
Proc N=2| At the 26th looking for 1001.125
Proc N=2| << at .//processor2/
Proc N=1| At the 26th looking for 1001.125
Proc N=1| << at .//processor1/
Proc N=3| At the 27th looking for 1001.13
Proc N=3| << at .//processor3/
 87% [||||||||||||||||||||||||||||||||||||||||||||||||||||        ]Proc N=0| At the 27th looking for 1001.13
Proc N=0| << at .//processor0/
0 This should not be constant :1001.13
Proc N=2| At the 27th looking for 1001.13
Proc N=2| << at .//processor2/
Proc N=1| At the 27th looking for 1001.13
Proc N=1| << at .//processor1/
Proc N=3| At the 28th looking for 1001.135
Proc N=3| << at .//processor3/
 90% [||||||||||||||||||||||||||||||||||||||||||||||||||||||      ]Proc N=0| At the 28th looking for 1001.135
Proc N=0| << at .//processor0/
0 This should not be constant :1001.135
Proc N=2| At the 28th looking for 1001.135
Proc N=2| << at .//processor2/
Proc N=1| At the 28th looking for 1001.135
Proc N=1| << at .//processor1/
Proc N=3| At the 29th looking for 1001.14
Proc N=3| << at .//processor3/
 93% [||||||||||||||||||||||||||||||||||||||||||||||||||||||||    ]Proc N=0| At the 29th looking for 1001.14
Proc N=0| << at .//processor0/
0 This should not be constant :1001.14
Proc N=2| At the 29th looking for 1001.14
Proc N=2| << at .//processor2/
Proc N=1| At the 29th looking for 1001.14
Proc N=1| << at .//processor1/
Proc N=3| At the 30th looking for 1001.145
Proc N=3| << at .//processor3/
 96% [||||||||||||||||||||||||||||||||||||||||||||||||||||||||||  ]Proc N=0| At the 30th looking for 1001.145
Proc N=0| << at .//processor0/
0 This should not be constant :1001.145
Proc N=1| At the 30th looking for 1001.145
Proc N=1| << at .//processor1/
Proc N=2| At the 30th looking for 1001.145
Proc N=2| << at .//processor2/
100% [||||||||||||||||||||||||||||||||||||||||||||||||||||||||||||]
Adding the triangular block [20:29]x[20:29] to the covariance matrix
in dot_product_POD getMassmatrix
in dot_product, if L2
In getmassmatrix 1234
In nModes == 0
 243.21  243.21 243.211 243.211 243.211 243.212 243.212 243.212 243.212 243.212
 243.21 243.211 243.211 243.211 243.212 243.212 243.212 243.212 243.213 243.213
243.211 243.211 243.211 243.212 243.212 243.212 243.212 243.213 243.213 243.213
243.211 243.211 243.212 243.212 243.212 243.212 243.213 243.213 243.213 243.213
243.211 243.212 243.212 243.212 243.212 243.213 243.213 243.213 243.213 243.214
243.212 243.212 243.212 243.212 243.213 243.213 243.213 243.213 243.214 243.214
243.212 243.212 243.212 243.213 243.213 243.213 243.213 243.214 243.214 243.214
243.212 243.212 243.213 243.213 243.213 243.213 243.214 243.214 243.214 243.214
243.212 243.213 243.213 243.213 243.213 243.214 243.214 243.214 243.214 243.215
Computation passed
Reducing
16.1568  16.162 16.1672 16.1723 16.1773 16.1823 16.1871 16.1919 16.1967 16.2013
 16.162 16.1674 16.1726 16.1778 16.1829 16.1879 16.1929 16.1977 16.2025 16.2072
16.1672 16.1726 16.1779 16.1832 16.1884 16.1935 16.1985 16.2034 16.2083 16.2131
16.1723 16.1778 16.1832 16.1885 16.1938  16.199  16.204 16.2091  16.214 16.2189
16.1773 16.1829 16.1884 16.1938 16.1991 16.2044 16.2095 16.2146 16.2196 16.2246
16.1823 16.1879 16.1935  16.199 16.2044 16.2097 16.2149 16.2201 16.2252 16.2302
16.1871 16.1929 16.1985  16.204 16.2095 16.2149 16.2203 16.2255 16.2307 16.2358
16.1919 16.1977 16.2034 16.2091 16.2146 16.2201 16.2255 16.2308 16.2361 16.2413
16.1967 16.2025 16.2083  16.214 16.2196 16.2252 16.2307 16.2361 16.2414 16.2467
1020.06 1020.06 1020.05 1020.04 1020.03 1020.02    1020 1019.99 1019.97 1019.96
1020.06 1020.05 1020.04 1020.04 1020.03 1020.02    1020 1019.99 1019.98 1019.96
1020.05 1020.04 1020.04 1020.03 1020.02 1020.01    1020 1019.99 1019.98 1019.97
1020.04 1020.04 1020.03 1020.03 1020.02 1020.01    1020 1019.99 1019.98 1019.97
1020.03 1020.03 1020.02 1020.02 1020.01 1020.01    1020 1019.99 1019.98 1019.97
1020.02 1020.02 1020.01 1020.01 1020.01    1020 1019.99 1019.99 1019.98 1019.97
   1020    1020    1020    1020    1020 1019.99 1019.99 1019.98 1019.97 1019.96
1019.99 1019.99 1019.99 1019.99 1019.99 1019.99 1019.98 1019.98 1019.97 1019.96
1019.97 1019.98 1019.98 1019.98 1019.98 1019.98 1019.97 1019.97 1019.96 1019.96
16.2013 16.2072 16.2131 16.2189 16.2246 16.2302 16.2358 16.2413 16.2467  16.2521Reduced
7.13387 7.13458 7.13527 7.13595 7.13662 7.13728 7.13792 7.13856 7.13918  7.1398
7.13458  7.1353 7.13601 7.13671  7.1374 7.13807 7.13874 7.13939 7.14003 7.14066
7.13527 7.13601 7.13674 7.13745 7.13816 7.13886 7.13954 7.14021 7.14087 7.14152
7.13595 7.13671 7.13745 7.13819 7.13891 7.13963 7.14033 7.14102  7.1417 7.14236
7.13662  7.1374 7.13816 7.13891 7.13966 7.14039 7.14111 7.14182 7.14251  7.1432
7.13728 7.13807 7.13886 7.13963 7.14039 7.14114 7.14188  7.1426 7.14332 7.14402
7.13792 7.13874 7.13954 7.14033 7.14111 7.14188 7.14263 7.14338 7.14411 7.14483
7.13856 7.13939 7.14021 7.14102 7.14182  7.1426 7.14338 7.14414 7.14489 7.14563
7.13918 7.14003 7.14087  7.1417 7.14251 7.14332 7.14411 7.14489 7.14566 7.14642
reduce passed

Entering 2nd read_fields with ".//processor0/"
######### 0 ####### Parallel Reading the Data for U #########
/home/fregnault/Code/ITHACA-FV/tutorials/CFD/01bisPODCompare
".//processor0/"
-1 & 42
First and last snapshot number
-1
12
Proc N=0| At the 1th looking for 1001
Proc N=0| << at .//processor0/
1019.96 1019.96 1019.97 1019.97 1019.97 1019.97 1019.96 1019.96 1019.96 1019.951Proc N=1| At the 1th looking for 1001
Proc N=1| << at .//processor1/
0 This should not be constant :1001
243.212 243.213 243.213 243.213 243.214 243.214 243.214 243.214 243.215 243.2151Proc N=3| At the 1th looking for 1001
Proc N=3| << at .//processor3/
 7.1398 7.14066 7.14152 7.14236  7.1432 7.14402 7.14483 7.14563 7.14642  7.14721Proc N=2| At the 1th looking for 1001
Proc N=2| << at .//processor2/
Proc N=1| At the 2th looking for 1001.005
Proc N=1| << at .//processor1/
 18% [||||||||||                                                  ]Proc N=0| At the 2th looking for 1001.005
Proc N=0| << at .//processor0/
0 This should not be constant :1001.005
Proc N=2| At the 2th looking for 1001.005
Proc N=2| << at .//processor2/
Proc N=3| At the 2th looking for 1001.005
Proc N=3| << at .//processor3/
 27% [||||||||||||||||                                            ]Proc N=1| At the 3th looking for 1001.01
Proc N=1| << at .//processor1/
Proc N=0| At the 3th looking for 1001.01
Proc N=0| << at .//processor0/
0 This should not be constant :1001.01
Proc N=3| At the 3th looking for 1001.01
Proc N=3| << at .//processor3/
Proc N=2| At the 3th looking for 1001.01
Proc N=2| << at .//processor2/
 36% [|||||||||||||||||||||                                       ]Proc N=0| At the 4th looking for 1001.015
Proc N=0| << at .//processor0/
0 This should not be constant :1001.015
Proc N=1| At the 4th looking for 1001.015
Proc N=1| << at .//processor1/
Proc N=3| At the 4th looking for 1001.015
Proc N=3| << at .//processor3/
Proc N=2| At the 4th looking for 1001.015
Proc N=2| << at .//processor2/
Proc N=1| At the 5th looking for 1001.02
Proc N=1| << at .//processor1/
 45% [|||||||||||||||||||||||||||                                 ]Proc N=0| At the 5th looking for 1001.02
Proc N=0| << at .//processor0/
0 This should not be constant :1001.02
Proc N=3| At the 5th looking for 1001.02
Proc N=3| << at .//processor3/
Proc N=2| At the 5th looking for 1001.02
Proc N=2| << at .//processor2/
Proc N=1| At the 6th looking for 1001.025
Proc N=1| << at .//processor1/
 54% [||||||||||||||||||||||||||||||||                            ]Proc N=0| At the 6th looking for 1001.025
Proc N=0| << at .//processor0/
0 This should not be constant :1001.025
Proc N=3| At the 6th looking for 1001.025
Proc N=3| << at .//processor3/
Proc N=2| At the 6th looking for 1001.025
Proc N=2| << at .//processor2/
Proc N=1| At the 7th looking for 1001.03
Proc N=1| << at .//processor1/
 63% [||||||||||||||||||||||||||||||||||||||                      ]Proc N=0| At the 7th looking for 1001.03
Proc N=0| << at .//processor0/
0 This should not be constant :1001.03
Proc N=3| At the 7th looking for 1001.03
Proc N=3| << at .//processor3/
Proc N=2| At the 7th looking for 1001.03
Proc N=2| << at .//processor2/
Proc N=1| At the 8th looking for 1001.035
Proc N=1| << at .//processor1/
 72% [|||||||||||||||||||||||||||||||||||||||||||                 ]Proc N=0| At the 8th looking for 1001.035
Proc N=0| << at .//processor0/
0 This should not be constant :1001.035
Proc N=3| At the 8th looking for 1001.035
Proc N=3| << at .//processor3/
Proc N=2| At the 8th looking for 1001.035
Proc N=2| << at .//processor2/
Proc N=1| At the 9th looking for 1001.04
Proc N=1| << at .//processor1/
Proc N=3| At the 9th looking for 1001.04
Proc N=3| << at .//processor3/
 81% [|||||||||||||||||||||||||||||||||||||||||||||||||           ]Proc N=0| At the 9th looking for 1001.04
Proc N=0| << at .//processor0/
0 This should not be constant :1001.04
Proc N=2| At the 9th looking for 1001.04
Proc N=2| << at .//processor2/
Proc N=1| At the 10th looking for 1001.045
Proc N=1| << at .//processor1/
Proc N=3| At the 10th looking for 1001.045
Proc N=3| << at .//processor3/
 90% [||||||||||||||||||||||||||||||||||||||||||||||||||||||      ]Proc N=0| At the 10th looking for 1001.045
Proc N=0| << at .//processor0/
0 This should not be constant :1001.045
Proc N=2| At the 10th looking for 1001.045
Proc N=2| << at .//processor2/
100% [||||||||||||||||||||||||||||||||||||||||||||||||||||||||||||]
Adding the square block [20:29]x[0:9] to the covariance matrix
in dot_product_POD getMassmatrix
in dot_product, if L2
In getmassmatrix 1234
In nModes == 0
1019.95 1019.96 1019.98 1019.99 1020.01 1020.02 1020.03 1020.04 1020.05 1020.06
1019.92 1019.93 1019.95 1019.97 1019.98    1020 1020.01 1020.02 1020.03 1020.04
1019.89  1019.9 1019.92 1019.94 1019.96 1019.97 1019.98    1020 1020.01 1020.02
1019.85 1019.87 1019.89 1019.91 1019.93 1019.94 1019.96 1019.97 1019.98 1019.99
1019.82 1019.84 1019.86 1019.88  1019.9 1019.91 1019.93 1019.95 1019.96 1019.97
1019.79 1019.81 1019.83 1019.85 1019.87 1019.89  1019.9 1019.92 1019.93 1019.95
1019.75 1019.77  1019.8 1019.82 1019.84 1019.86 1019.87 1019.89 1019.91 1019.92
1019.71 1019.74 1019.76 1019.78  1019.8 1019.82 1019.84 1019.86 1019.88 1019.89
1019.68  1019.7 1019.72 1019.75 1019.77 1019.79 1019.81 1019.83 1019.85 1019.87
Computation passed
Reducing
16.0369 16.0427 16.0493 16.0559 16.0625 16.0689 16.0753 16.0816 16.0878  16.094
16.0406 16.0465 16.0532 16.0599 16.0665  16.073 16.0795 16.0859 16.0922 16.0984
16.0443 16.0502  16.057 16.0638 16.0704 16.0771 16.0836   16.09 16.0964 16.1027
16.0479 16.0539 16.0607 16.0676 16.0743  16.081 16.0876 16.0942 16.1006  16.107
16.0514 16.0574 16.0644 16.0713 16.0781 16.0849 16.0916 16.0982 16.1047 16.1112
16.0548  16.061  16.068  16.075 16.0819 16.0887 16.0955 16.1021 16.1088 16.1153
16.0582 16.0644 16.0715 16.0786 16.0855 16.0924 16.0993  16.106 16.1127 16.1193
16.0615 16.0678  16.075 16.0821 16.0891 16.0961  16.103 16.1098 16.1166 16.1233
16.0647 16.0711 16.0783 16.0855 16.0926 16.0997 16.1067 16.1136 16.1204 16.1272
243.201 243.204 243.205 243.205 243.205 243.206 243.206 243.206 243.207 243.207
243.201 243.205 243.205 243.205 243.206 243.206 243.206 243.207 243.207 243.207
243.202 243.205 243.205 243.205 243.206 243.206 243.207 243.207 243.207 243.208
243.202 243.205 243.205 243.206 243.206 243.206 243.207 243.207 243.207 243.208
243.202 243.205 243.206 243.206 243.206 243.207 243.207 243.207 243.208 243.208
243.202 243.206 243.206 243.206 243.207 243.207 243.207 243.208 243.208 243.208
243.203 243.206 243.206 243.206 243.207 243.207 243.208 243.208 243.208 243.209
243.203 243.206 243.206 243.207 243.207 243.207 243.208 243.208 243.208 243.209
243.203 243.206 243.207 243.207 243.207 243.208 243.208 243.208 243.209 243.209
16.0679 16.0743 16.0816 16.0889 16.0961 16.1032 16.1103 16.1172 16.1242  16.1311Reduced
reduce passed
7.11771 7.11857 7.11946 7.12034 7.12121 7.12208 7.12293 7.12378 7.12461 7.12544
7.11806 7.11894 7.11985 7.12074 7.12163 7.12251 7.12339 7.12425  7.1251 7.12595
 7.1184 7.11929 7.12022 7.12113 7.12204 7.12294 7.12383 7.12471 7.12558 7.12644
7.11873 7.11964 7.12058 7.12151 7.12244 7.12335 7.12426 7.12516 7.12605 7.12692
7.11905 7.11997 7.12093 7.12188 7.12282 7.12376 7.12468 7.12559  7.1265  7.1274
7.11935  7.1203 7.12127 7.12224  7.1232 7.12415 7.12509 7.12602 7.12694 7.12786
7.11965 7.12061  7.1216 7.12259 7.12356 7.12453 7.12549 7.12644 7.12738 7.12831
7.11993 7.12091 7.12192 7.12292 7.12391  7.1249 7.12587 7.12684  7.1278 7.12875
7.12021  7.1212 7.12223 7.12324 7.12425 7.12525 7.12625 7.12723 7.12821 7.12917

Entering 2nd read_fields with ".//processor0/"
######### 0 ####### Parallel Reading the Data for U #########
/home/fregnault/Code/ITHACA-FV/tutorials/CFD/01bisPODCompare
".//processor0/"
9 & 42
First and last snapshot number
9
12
243.203 243.206 243.207 243.207 243.208 243.208 243.208 243.209 243.209 243.2091Proc N=3| At the 11th looking for 1001.05
Proc N=3| << at .//processor3/
1019.64 1019.66 1019.69 1019.71 1019.74 1019.76 1019.78  1019.8 1019.82 1019.841Proc N=1| At the 11th looking for 1001.05
Proc N=1| << at .//processor1/
7.12047 7.12148 7.12252 7.12356 7.12458  7.1256 7.12661 7.12761 7.12861 7.129591Proc N=2| At the 11th looking for 1001.05
Proc N=2| << at .//processor2/
Proc N=0| At the 11th looking for 1001.05
Proc N=0| << at .//processor0/
0 This should not be constant :1001.05
Proc N=3| At the 12th looking for 1001.055
Proc N=3| << at .//processor3/
 57% [||||||||||||||||||||||||||||||||||                          ]Proc N=0| At the 12th looking for 1001.055
Proc N=0| << at .//processor0/
0 This should not be constant :1001.055
Proc N=1| At the 12th looking for 1001.055
Proc N=1| << at .//processor1/
Proc N=2| At the 12th looking for 1001.055
Proc N=2| << at .//processor2/
Proc N=3| At the 13th looking for 1001.06
Proc N=3| << at .//processor3/
Proc N=1| At the 13th looking for 1001.06
Proc N=1| << at .//processor1/
 61% [|||||||||||||||||||||||||||||||||||||                       ]Proc N=0| At the 13th looking for 1001.06
Proc N=0| << at .//processor0/
0 This should not be constant :1001.06
Proc N=2| At the 13th looking for 1001.06
Proc N=2| << at .//processor2/
Proc N=3| At the 14th looking for 1001.065
Proc N=3| << at .//processor3/
Proc N=1| At the 14th looking for 1001.065
Proc N=1| << at .//processor1/
 66% [||||||||||||||||||||||||||||||||||||||||                    ]Proc N=0| At the 14th looking for 1001.065
Proc N=0| << at .//processor0/
0 This should not be constant :1001.065
Proc N=2| At the 14th looking for 1001.065
Proc N=2| << at .//processor2/
Proc N=3| At the 15th looking for 1001.07
Proc N=3| << at .//processor3/
Proc N=1| At the 15th looking for 1001.07
Proc N=1| << at .//processor1/
 71% [||||||||||||||||||||||||||||||||||||||||||                  ]Proc N=0| At the 15th looking for 1001.07
Proc N=0| << at .//processor0/
0 This should not be constant :1001.07
Proc N=2| At the 15th looking for 1001.07
Proc N=2| << at .//processor2/
Proc N=1| At the 16th looking for 1001.075
Proc N=1| << at .//processor1/
Proc N=3| At the 16th looking for 1001.075
Proc N=3| << at .//processor3/
 76% [|||||||||||||||||||||||||||||||||||||||||||||               ]Proc N=0| At the 16th looking for 1001.075
Proc N=0| << at .//processor0/
0 This should not be constant :1001.075
Proc N=2| At the 16th looking for 1001.075
Proc N=2| << at .//processor2/
Proc N=3| At the 17th looking for 1001.08
Proc N=3| << at .//processor3/
Proc N=1| At the 17th looking for 1001.08
Proc N=1| << at .//processor1/
 80% [||||||||||||||||||||||||||||||||||||||||||||||||            ]Proc N=0| At the 17th looking for 1001.08
Proc N=0| << at .//processor0/
0 This should not be constant :1001.08
Proc N=2| At the 17th looking for 1001.08
Proc N=2| << at .//processor2/
Proc N=3| At the 18th looking for 1001.085
Proc N=3| << at .//processor3/
Proc N=1| At the 18th looking for 1001.085
Proc N=1| << at .//processor1/
 85% [|||||||||||||||||||||||||||||||||||||||||||||||||||         ]Proc N=0| At the 18th looking for 1001.085
Proc N=0| << at .//processor0/
0 This should not be constant :1001.085
Proc N=2| At the 18th looking for 1001.085
Proc N=2| << at .//processor2/
Proc N=3| At the 19th looking for 1001.09
Proc N=3| << at .//processor3/
Proc N=1| At the 19th looking for 1001.09
Proc N=1| << at .//processor1/
 90% [||||||||||||||||||||||||||||||||||||||||||||||||||||||      ]Proc N=0| At the 19th looking for 1001.09
Proc N=0| << at .//processor0/
0 This should not be constant :1001.09
Proc N=2| At the 19th looking for 1001.09
Proc N=2| << at .//processor2/
Proc N=3| At the 20th looking for 1001.095
Proc N=3| << at .//processor3/
 95% [|||||||||||||||||||||||||||||||||||||||||||||||||||||||||   ]Proc N=0| At the 20th looking for 1001.095
Proc N=0| << at .//processor0/
0 This should not be constant :1001.095
Proc N=1| At the 20th looking for 1001.095
Proc N=1| << at .//processor1/
Proc N=2| At the 20th looking for 1001.095
Proc N=2| << at .//processor2/
100% [||||||||||||||||||||||||||||||||||||||||||||||||||||||||||||]
Adding the square block [20:29]x[10:19] to the covariance matrix
in dot_product_POD getMassmatrix
in dot_product, if L2
In getmassmatrix 1234
In nModes == 0
243.207 243.208 243.208 243.208 243.209 243.209 243.209 243.209  243.21  243.21
243.208 243.208 243.208 243.209 243.209 243.209 243.209  243.21  243.21  243.21
243.208 243.208 243.208 243.209 243.209 243.209  243.21  243.21  243.21  243.21
243.208 243.208 243.209 243.209 243.209  243.21  243.21  243.21  243.21 243.211
243.208 243.209 243.209 243.209  243.21  243.21  243.21  243.21 243.211 243.211
243.209 243.209 243.209  243.21  243.21  243.21  243.21 243.211 243.211 243.211
243.209 243.209 243.209  243.21  243.21  243.21 243.211 243.211 243.211 243.211
243.209 243.209  243.21  243.21  243.21 243.211 243.211 243.211 243.211 243.212
243.209  243.21  243.21  243.21 243.211 243.211 243.211 243.211 243.212 243.212
Computation passed
Reducing
16.1001 16.1061  16.112 16.1179 16.1237 16.1294  16.135 16.1406 16.1461 16.1515
16.1046 16.1107 16.1167 16.1226 16.1285 16.1343   16.14 16.1456 16.1512 16.1566
 16.109 16.1151 16.1212 16.1272 16.1332  16.139 16.1448 16.1505 16.1562 16.1617
16.1133 16.1196 16.1257 16.1318 16.1378 16.1438 16.1496 16.1554 16.1611 16.1668
16.1176 16.1239 16.1301 16.1363 16.1424 16.1484 16.1543 16.1602  16.166 16.1717
16.1218 16.1282 16.1345 16.1407 16.1469  16.153  16.159 16.1649 16.1708 16.1766
16.1259 16.1323 16.1387  16.145 16.1513 16.1574 16.1635 16.1696 16.1755 16.1814
16.1299 16.1364 16.1429 16.1493 16.1556 16.1619  16.168 16.1741 16.1801 16.1861
16.1339 16.1405  16.147 16.1535 16.1599 16.1662 16.1724 16.1786 16.1847 16.1907
1020.07 1020.07 1020.07 1020.08 1020.08 1020.08 1020.08 1020.08 1020.07 1020.07
1020.05 1020.05 1020.06 1020.06 1020.07 1020.07 1020.07 1020.07 1020.06 1020.06
1020.03 1020.03 1020.04 1020.05 1020.05 1020.05 1020.05 1020.05 1020.05 1020.05
   1020 1020.01 1020.02 1020.03 1020.03 1020.04 1020.04 1020.04 1020.04 1020.04
1019.98 1019.99    1020 1020.01 1020.02 1020.02 1020.02 1020.03 1020.03 1020.03
1019.96 1019.97 1019.98 1019.99    1020    1020 1020.01 1020.01 1020.02 1020.02
1019.93 1019.95 1019.96 1019.97 1019.98 1019.98 1019.99    1020    1020    1020
1019.91 1019.92 1019.93 1019.95 1019.96 1019.96 1019.97 1019.98 1019.98 1019.99
1019.88  1019.9 1019.91 1019.92 1019.93 1019.94 1019.95 1019.96 1019.97 1019.97
7.12626 7.12706 7.12786 7.12865 7.12943 7.13019 7.13095  7.1317 7.13243 7.13316
7.12678 7.12761 7.12842 7.12923 7.13002 7.13081 7.13158 7.13235  7.1331 7.13384
7.12729 7.12814 7.12897 7.12979 7.13061 7.13141  7.1322 7.13298 7.13376 7.13452
 7.1278 7.12866 7.12951 7.13035 7.13118   7.132 7.13281 7.13361  7.1344 7.13518
7.12829 7.12916 7.13003 7.13089 7.13174 7.13258 7.13341 7.13423 7.13503 7.13583
7.12876 7.12966 7.13055 7.13142 7.13229 7.13315 7.13399 7.13483 7.13566 7.13647
7.12923 7.13015 7.13105 7.13194 7.13283  7.1337 7.13457 7.13542 7.13627  7.1371
7.12969 7.13062 7.13154 7.13245 7.13336 7.13425 7.13513   7.136 7.13687 7.13772
7.13013 7.13108 7.13202 7.13295 7.13387 7.13478 7.13568 7.13657 7.13745 7.13832
16.1377 16.1444 16.1511 16.1576 16.1641 16.1705 16.1768  16.183 16.1892 16.19531Reduced
reduce passed

casenameData ".//processor0/"
l_startTime 1
i 3
q 10
######### 0 ####### Parallel Reading the Data for U #########
/home/fregnault/Code/ITHACA-FV/tutorials/CFD/01bisPODCompare
".//processor0/"
29 & 42
First and last snapshot number
29
12
1019.85 1019.87 1019.88  1019.9 1019.91 1019.92 1019.93 1019.94 1019.95 1019.951Proc N=1| At the 31th looking for 1001.15
Proc N=1| << at .//processor1/
7.13057 7.13153 7.13249 7.13344 7.13438  7.1353 7.13622 7.13713 7.13803 7.138921Proc N=2| At the 31th looking for 1001.15
Proc N=2| << at .//processor2/
Proc N=0| At the 31th looking for 1001.15
Proc N=0| << at .//processor0/
 243.21  243.21  243.21  243.21 243.211 243.211 243.211 243.212 243.212 243.2121Proc N=3| At the 31th looking for 1001.15
Proc N=3| << at .//processor3/
0 This should not be constant :1001.15
Proc N=3| At the 32th looking for 1001.155
Proc N=3| << at .//processor3/
 78% [||||||||||||||||||||||||||||||||||||||||||||||              ]Proc N=0| At the 32th looking for 1001.155
Proc N=0| << at .//processor0/
0 This should not be constant :1001.155
Proc N=1| At the 32th looking for 1001.155
Proc N=1| << at .//processor1/
Proc N=2| At the 32th looking for 1001.155
Proc N=2| << at .//processor2/
Proc N=3| At the 33th looking for 1001.16
Proc N=3| << at .//processor3/
 80% [||||||||||||||||||||||||||||||||||||||||||||||||            ]Proc N=0| At the 33th looking for 1001.16
Proc N=0| << at .//processor0/
0 This should not be constant :1001.16
Proc N=1| At the 33th looking for 1001.16
Proc N=1| << at .//processor1/
Proc N=2| At the 33th looking for 1001.16
Proc N=2| << at .//processor2/
Proc N=3| At the 34th looking for 1001.165
Proc N=3| << at .//processor3/
 82% [|||||||||||||||||||||||||||||||||||||||||||||||||           ]Proc N=0| At the 34th looking for 1001.165
Proc N=0| << at .//processor0/
0 This should not be constant :1001.165
Proc N=1| At the 34th looking for 1001.165
Proc N=1| << at .//processor1/
Proc N=2| At the 34th looking for 1001.165
Proc N=2| << at .//processor2/
Proc N=3| At the 35th looking for 1001.17
Proc N=3| << at .//processor3/
 85% [|||||||||||||||||||||||||||||||||||||||||||||||||||         ]Proc N=0| At the 35th looking for 1001.17
Proc N=0| << at .//processor0/
0 This should not be constant :1001.17
Proc N=1| At the 35th looking for 1001.17
Proc N=1| << at .//processor1/
Proc N=2| At the 35th looking for 1001.17
Proc N=2| << at .//processor2/
Proc N=3| At the 36th looking for 1001.175
Proc N=3| << at .//processor3/
Proc N=1| At the 36th looking for 1001.175
Proc N=1| << at .//processor1/
 87% [||||||||||||||||||||||||||||||||||||||||||||||||||||        ]Proc N=0| At the 36th looking for 1001.175
Proc N=0| << at .//processor0/
0 This should not be constant :1001.175
Proc N=2| At the 36th looking for 1001.175
Proc N=2| << at .//processor2/
Proc N=3| At the 37th looking for 1001.18
Proc N=3| << at .//processor3/
Proc N=1| At the 37th looking for 1001.18
Proc N=1| << at .//processor1/
 90% [||||||||||||||||||||||||||||||||||||||||||||||||||||||      ]Proc N=0| At the 37th looking for 1001.18
Proc N=0| << at .//processor0/
0 This should not be constant :1001.18
Proc N=2| At the 37th looking for 1001.18
Proc N=2| << at .//processor2/
Proc N=3| At the 38th looking for 1001.185
Proc N=3| << at .//processor3/
Proc N=1| At the 38th looking for 1001.185
Proc N=1| << at .//processor1/
 92% [|||||||||||||||||||||||||||||||||||||||||||||||||||||||     ]Proc N=0| At the 38th looking for 1001.185
Proc N=0| << at .//processor0/
0 This should not be constant :1001.185
Proc N=2| At the 38th looking for 1001.185
Proc N=2| << at .//processor2/
Proc N=3| At the 39th looking for 1001.19
Proc N=3| << at .//processor3/
Proc N=1| At the 39th looking for 1001.19
Proc N=1| << at .//processor1/
 95% [|||||||||||||||||||||||||||||||||||||||||||||||||||||||||   ]Proc N=0| At the 39th looking for 1001.19
Proc N=0| << at .//processor0/
0 This should not be constant :1001.19
Proc N=2| At the 39th looking for 1001.19
Proc N=2| << at .//processor2/
Proc N=3| At the 40th looking for 1001.195
Proc N=3| << at .//processor3/
Proc N=1| At the 40th looking for 1001.195
Proc N=1| << at .//processor1/
 97% [||||||||||||||||||||||||||||||||||||||||||||||||||||||||||  ]Proc N=0| At the 40th looking for 1001.195
Proc N=0| << at .//processor0/
0 This should not be constant :1001.195
Proc N=2| At the 40th looking for 1001.195
Proc N=2| << at .//processor2/
100% [||||||||||||||||||||||||||||||||||||||||||||||||||||||||||||]
Adding the triangular block [30:39]x[30:39] to the covariance matrix
in dot_product_POD getMassmatrix
in dot_product, if L2
In getmassmatrix 1234
In nModes == 0
243.215 243.216 243.216 243.216 243.216 243.216 243.217 243.217 243.217 243.217
243.216 243.216 243.216 243.216 243.217 243.217 243.217 243.217 243.217 243.218
243.216 243.216 243.216 243.217 243.217 243.217 243.217 243.217 243.218 243.218
243.216 243.216 243.217 243.217 243.217 243.217 243.217 243.218 243.218 243.218
243.216 243.217 243.217 243.217 243.217 243.217 243.218 243.218 243.218 243.218
243.216 243.217 243.217 243.217 243.217 243.218 243.218 243.218 243.218 243.219
243.217 243.217 243.217 243.217 243.218 243.218 243.218 243.218 243.219 243.219
243.217 243.217 243.217 243.218 243.218 243.218 243.218 243.219 243.219 243.219
243.217 243.217 243.218 243.218 243.218 243.218 243.219 243.219 243.219 243.219
1019.94 1019.93 1019.92 1019.91  1019.9 1019.89 1019.88 1019.86 1019.85 1019.83
1019.93 1019.93 1019.92 1019.91  1019.9 1019.89 1019.88 1019.87 1019.85 1019.84
1019.92 1019.92 1019.91 1019.91  1019.9 1019.89 1019.88 1019.87 1019.85 1019.84
1019.91 1019.91 1019.91  1019.9 1019.89 1019.88 1019.88 1019.86 1019.85 1019.84
 1019.9  1019.9  1019.9 1019.89 1019.89 1019.88 1019.87 1019.86 1019.85 1019.84
1019.89 1019.89 1019.89 1019.88 1019.88 1019.87 1019.87 1019.86 1019.85 1019.84
1019.88 1019.88 1019.88 1019.88 1019.87 1019.87 1019.86 1019.85 1019.85 1019.84
1019.86 1019.87 1019.87 1019.86 1019.86 1019.86 1019.85 1019.85 1019.84 1019.83
1019.85 1019.85 1019.85 1019.85 1019.85 1019.85 1019.85 1019.84 1019.84 1019.83
Computation passed
Reducing
16.2626 16.2678  16.273 16.2781 16.2831  16.288 16.2929 16.2977 16.3024  16.307
16.2678 16.2731 16.2784 16.2835 16.2886 16.2936 16.2986 16.3034 16.3082 16.3129
 16.273 16.2784 16.2837 16.2889 16.2941 16.2992 16.3042 16.3091  16.314 16.3188
16.2781 16.2835 16.2889 16.2943 16.2995 16.3047 16.3098 16.3148 16.3197 16.3245
16.2831 16.2886 16.2941 16.2995 16.3048 16.3101 16.3152 16.3203 16.3253 16.3302
 16.288 16.2936 16.2992 16.3047 16.3101 16.3154 16.3206 16.3258 16.3309 16.3359
16.2929 16.2986 16.3042 16.3098 16.3152 16.3206 16.3259 16.3312 16.3363 16.3414
16.2977 16.3034 16.3091 16.3148 16.3203 16.3258 16.3312 16.3365 16.3417 16.3469
16.3024 16.3082  16.314 16.3197 16.3253 16.3309 16.3363 16.3417  16.347 16.3523
7.14875 7.14952 7.15028 7.15103 7.15177 7.15249  7.1532  7.1539 7.15458 7.15526
7.14952 7.15031 7.15109 7.15186 7.15261 7.15335 7.15408  7.1548  7.1555  7.1562
7.15028 7.15109 7.15189 7.15267 7.15345 7.15421 7.15496 7.15569 7.15641 7.15712
7.15103 7.15186 7.15267 7.15348 7.15427 7.15505 7.15582 7.15657 7.15731 7.15804
7.15177 7.15261 7.15345 7.15427 7.15508 7.15588 7.15666 7.15744  7.1582 7.15895
7.15249 7.15335 7.15421 7.15505 7.15588  7.1567  7.1575 7.15829 7.15907 7.15984
 7.1532 7.15408 7.15496 7.15582 7.15666  7.1575 7.15832 7.15913 7.15993 7.16072
 7.1539  7.1548 7.15569 7.15657 7.15744 7.15829 7.15913 7.15996 7.16078 7.16159
7.15458  7.1555 7.15641 7.15731  7.1582 7.15907 7.15993 7.16078 7.16162 7.16244
 16.307 16.3129 16.3188 16.3245 16.3302 16.3359 16.3414 16.3469 16.3523 16.35761Reduced
reduce passed

Entering 2nd read_fields with ".//processor0/"
######### 0 ####### Parallel Reading the Data for U #########
/home/fregnault/Code/ITHACA-FV/tutorials/CFD/01bisPODCompare
".//processor0/"
-1 & 42
1019.83 1019.84 1019.84 1019.84 1019.84 1019.84 1019.84 1019.83 1019.83 1019.821Proc N=1| At the 1th looking for 1001
Proc N=1| << at .//processor1/
First and last snapshot number
-1
12
Proc N=0| At the 1th looking for 1001
243.217 243.218 243.218 243.218 243.218 243.219 243.219 243.219 243.219  243.221Proc N=3| At the 1th looking for 1001
Proc N=3| << at .//processor3/
7.15526  7.1562 7.15712 7.15804 7.15895 7.15984 7.16072 7.16159 7.16244 7.163281Proc N=2| At the 1th looking for 1001
Proc N=2| << at .//processor2/
Proc N=0| << at .//processor0/
0 This should not be constant :1001
Proc N=1| At the 2th looking for 1001.005
Proc N=1| << at .//processor1/
Proc N=3| At the 2th looking for 1001.005
Proc N=3| << at .//processor3/
 18% [||||||||||                                                  ]Proc N=0| At the 2th looking for 1001.005
Proc N=0| << at .//processor0/
0 This should not be constant :1001.005
Proc N=2| At the 2th looking for 1001.005
Proc N=2| << at .//processor2/
Proc N=1| At the 3th looking for 1001.01
Proc N=1| << at .//processor1/
 27% [||||||||||||||||                                            ]Proc N=0| At the 3th looking for 1001.01
Proc N=0| << at .//processor0/
0 This should not be constant :1001.01
Proc N=3| At the 3th looking for 1001.01
Proc N=3| << at .//processor3/
Proc N=2| At the 3th looking for 1001.01
Proc N=2| << at .//processor2/
Proc N=1| At the 4th looking for 1001.015
Proc N=1| << at .//processor1/
Proc N=3| At the 4th looking for 1001.015
Proc N=3| << at .//processor3/
 36% [|||||||||||||||||||||                                       ]Proc N=0| At the 4th looking for 1001.015
Proc N=0| << at .//processor0/
0 This should not be constant :1001.015
Proc N=2| At the 4th looking for 1001.015
Proc N=2| << at .//processor2/
Proc N=1| At the 5th looking for 1001.02
Proc N=1| << at .//processor1/
Proc N=3| At the 5th looking for 1001.02
Proc N=3| << at .//processor3/
 45% [|||||||||||||||||||||||||||                                 ]Proc N=0| At the 5th looking for 1001.02
Proc N=0| << at .//processor0/
0 This should not be constant :1001.02
Proc N=2| At the 5th looking for 1001.02
Proc N=2| << at .//processor2/
Proc N=1| At the 6th looking for 1001.025
Proc N=1| << at .//processor1/
Proc N=3| At the 6th looking for 1001.025
Proc N=3| << at .//processor3/
 54% [||||||||||||||||||||||||||||||||                            ]Proc N=0| At the 6th looking for 1001.025
Proc N=0| << at .//processor0/
0 This should not be constant :1001.025
Proc N=2| At the 6th looking for 1001.025
Proc N=2| << at .//processor2/
Proc N=1| At the 7th looking for 1001.03
Proc N=1| << at .//processor1/
 63% [||||||||||||||||||||||||||||||||||||||                      ]Proc N=0| At the 7th looking for 1001.03
Proc N=0| << at .//processor0/
0 This should not be constant :1001.03
Proc N=3| At the 7th looking for 1001.03
Proc N=3| << at .//processor3/
Proc N=2| At the 7th looking for 1001.03
Proc N=2| << at .//processor2/
Proc N=1| At the 8th looking for 1001.035
Proc N=1| << at .//processor1/
 72% [|||||||||||||||||||||||||||||||||||||||||||                 ]Proc N=0| At the 8th looking for 1001.035
Proc N=0| << at .//processor0/
0 This should not be constant :1001.035
Proc N=3| At the 8th looking for 1001.035
Proc N=3| << at .//processor3/
Proc N=2| At the 8th looking for 1001.035
Proc N=2| << at .//processor2/
Proc N=1| At the 9th looking for 1001.04
Proc N=1| << at .//processor1/
 81% [|||||||||||||||||||||||||||||||||||||||||||||||||           ]Proc N=0| At the 9th looking for 1001.04
Proc N=0| << at .//processor0/
0 This should not be constant :1001.04
Proc N=3| At the 9th looking for 1001.04
Proc N=3| << at .//processor3/
Proc N=2| At the 9th looking for 1001.04
Proc N=2| << at .//processor2/
Proc N=1| At the 10th looking for 1001.045
Proc N=1| << at .//processor1/
 90% [||||||||||||||||||||||||||||||||||||||||||||||||||||||      ]Proc N=0| At the 10th looking for 1001.045
Proc N=0| << at .//processor0/
Proc N=3| At the 10th looking for 1001.045
Proc N=3| << at .//processor3/
0 This should not be constant :1001.045
Proc N=2| At the 10th looking for 1001.045
Proc N=2| << at .//processor2/
100% [||||||||||||||||||||||||||||||||||||||||||||||||||||||||||||]
Adding the square block [30:39]x[0:9] to the covariance matrix
in dot_product_POD getMassmatrix
in dot_product, if L2
In getmassmatrix 1234
In nModes == 0
 1019.6 1019.62 1019.65 1019.68  1019.7 1019.72 1019.75 1019.77 1019.79 1019.81
1019.56 1019.59 1019.61 1019.64 1019.66 1019.69 1019.71 1019.73 1019.75 1019.77
1019.52 1019.54 1019.57  1019.6 1019.63 1019.65 1019.68  1019.7 1019.72 1019.74
1019.47  1019.5 1019.53 1019.56 1019.59 1019.61 1019.64 1019.66 1019.69 1019.71
1019.43 1019.46 1019.49 1019.52 1019.55 1019.57  1019.6 1019.63 1019.65 1019.67
1019.39 1019.42 1019.45 1019.48 1019.51 1019.54 1019.56 1019.59 1019.61 1019.64
1019.34 1019.37 1019.41 1019.44 1019.47 1019.49 1019.52 1019.55 1019.58  1019.6
 1019.3 1019.33 1019.36 1019.39 1019.42 1019.45 1019.48 1019.51 1019.54 1019.56
1019.25 1019.28 1019.32 1019.35 1019.38 1019.41 1019.44 1019.47  1019.5 1019.52
243.203 243.207 243.207 243.207 243.208 243.208 243.208 243.209 243.209 243.209
243.204 243.207 243.207 243.208 243.208 243.208 243.209 243.209 243.209  243.21
243.204 243.207 243.208 243.208 243.208 243.209 243.209 243.209  243.21  243.21
243.204 243.207 243.208 243.208 243.208 243.209 243.209 243.209  243.21  243.21
243.204 243.208 243.208 243.208 243.209 243.209 243.209  243.21  243.21  243.21
243.205 243.208 243.208 243.209 243.209 243.209  243.21  243.21  243.21 243.211
243.205 243.208 243.208 243.209 243.209  243.21  243.21  243.21  243.21 243.211
243.205 243.208 243.209 243.209 243.209  243.21  243.21  243.21 243.211 243.211
243.205 243.208 243.209 243.209  243.21  243.21  243.21 243.211 243.211 243.211
Computation passed
Reducing
 16.071 16.0775 16.0849 16.0922 16.0995 16.1067 16.1138 16.1208 16.1278 16.1347
 16.074 16.0806  16.088 16.0954 16.1028   16.11 16.1172 16.1244 16.1314 16.1384
 16.077 16.0836 16.0911 16.0986  16.106 16.1134 16.1206 16.1278 16.1349  16.142
16.0799 16.0866 16.0942 16.1017 16.1092 16.1166 16.1239 16.1312 16.1384 16.1455
16.0827 16.0894 16.0971 16.1047 16.1123 16.1198 16.1272 16.1345 16.1418  16.149
16.0854 16.0923    16.1 16.1077 16.1153 16.1228 16.1303 16.1377 16.1451 16.1523
16.0881  16.095 16.1028 16.1106 16.1183 16.1259 16.1334 16.1409 16.1483 16.1556
16.0907 16.0977 16.1056 16.1134 16.1211 16.1288 16.1364  16.144 16.1515 16.1589
16.0933 16.1003 16.1083 16.1162  16.124 16.1317 16.1394  16.147 16.1546  16.162
7.12072 7.12175 7.12281 7.12386  7.1249 7.12594 7.12696 7.12798 7.12899 7.12999
7.12096   7.122 7.12308 7.12415 7.12521 7.12626  7.1273 7.12834 7.12937 7.13039
7.12119 7.12225 7.12334 7.12443  7.1255 7.12657 7.12763 7.12869 7.12973 7.13077
 7.1214 7.12248 7.12359 7.12469 7.12579 7.12687 7.12795 7.12902 7.13008 7.13113
7.12161  7.1227 7.12383 7.12495 7.12606 7.12716 7.12826 7.12934 7.13042 7.13149
7.12181 7.12292 7.12406 7.12519 7.12632 7.12744 7.12855 7.12965 7.13075 7.13184
7.12199 7.12312 7.12427 7.12542 7.12657  7.1277 7.12883 7.12995 7.13106 7.13217
7.12216  7.1233 7.12448 7.12564  7.1268 7.12796  7.1291 7.13024 7.13137 7.13249
7.12232 7.12348 7.12467 7.12585 7.12703  7.1282 7.12936 7.13051 7.13166  7.1328
16.0958 16.1029 16.1109 16.1188 16.1267 16.1345 16.1423   16.15 16.1576 16.16511Reduced
reduce passed

Entering 2nd read_fields with ".//processor0/"
######### 0 ####### Parallel Reading the Data for U #########
/home/fregnault/Code/ITHACA-FV/tutorials/CFD/01bisPODCompare
".//processor0/"
9 & 42
 1019.2 1019.24 1019.27  1019.3 1019.34 1019.37  1019.4 1019.43 1019.46 1019.491Proc N=1| At the 11th looking for 1001.05
Proc N=1| << at .//processor1/
First and last snapshot number
9
12
7.12247 7.12365 7.12485 7.12605 7.12724 7.12843 7.12961 7.13078 7.13194  7.13311Proc N=2| At the 11th looking for 1001.05
Proc N=2| << at .//processor2/
243.205 243.209 243.209 243.209  243.21  243.21  243.21 243.211 243.211 243.2111Proc N=3| At the 11th looking for 1001.05
Proc N=3| << at .//processor3/
Proc N=0| At the 11th looking for 1001.05
Proc N=0| << at .//processor0/
0 This should not be constant :1001.05
 57% [||||||||||||||||||||||||||||||||||                          ]Proc N=0| At the 12th looking for 1001.055
Proc N=0| << at .//processor0/
0 This should not be constant :1001.055
Proc N=1| At the 12th looking for 1001.055
Proc N=1| << at .//processor1/
Proc N=2| At the 12th looking for 1001.055
Proc N=2| << at .//processor2/
Proc N=3| At the 12th looking for 1001.055
Proc N=3| << at .//processor3/
 61% [|||||||||||||||||||||||||||||||||||||                       ]Proc N=0| At the 13th looking for 1001.06
Proc N=0| << at .//processor0/
0 This should not be constant :1001.06
Proc N=1| At the 13th looking for 1001.06
Proc N=1| << at .//processor1/
Proc N=2| At the 13th looking for 1001.06
Proc N=2| << at .//processor2/
Proc N=3| At the 13th looking for 1001.06
Proc N=3| << at .//processor3/
 66% [||||||||||||||||||||||||||||||||||||||||                    ]Proc N=0| At the 14th looking for 1001.065
Proc N=0| << at .//processor0/
0 This should not be constant :1001.065
Proc N=1| At the 14th looking for 1001.065
Proc N=1| << at .//processor1/
Proc N=3| At the 14th looking for 1001.065
Proc N=3| << at .//processor3/
Proc N=2| At the 14th looking for 1001.065
Proc N=2| << at .//processor2/
Proc N=1| At the 15th looking for 1001.07
Proc N=1| << at .//processor1/
 71% [||||||||||||||||||||||||||||||||||||||||||                  ]Proc N=0| At the 15th looking for 1001.07
Proc N=0| << at .//processor0/
0 This should not be constant :1001.07
Proc N=3| At the 15th looking for 1001.07
Proc N=3| << at .//processor3/
Proc N=2| At the 15th looking for 1001.07
Proc N=2| << at .//processor2/
Proc N=1| At the 16th looking for 1001.075
Proc N=1| << at .//processor1/
 76% [|||||||||||||||||||||||||||||||||||||||||||||               ]Proc N=0| At the 16th looking for 1001.075
Proc N=0| << at .//processor0/
0 This should not be constant :1001.075
Proc N=3| At the 16th looking for 1001.075
Proc N=3| << at .//processor3/
Proc N=2| At the 16th looking for 1001.075
Proc N=2| << at .//processor2/
 80% [||||||||||||||||||||||||||||||||||||||||||||||||            ]Proc N=0| At the 17th looking for 1001.08
Proc N=0| << at .//processor0/
0 This should not be constant :1001.08
Proc N=1| At the 17th looking for 1001.08
Proc N=1| << at .//processor1/
Proc N=3| At the 17th looking for 1001.08
Proc N=3| << at .//processor3/
Proc N=2| At the 17th looking for 1001.08
Proc N=2| << at .//processor2/
Proc N=1| At the 18th looking for 1001.085
Proc N=1| << at .//processor1/
 85% [|||||||||||||||||||||||||||||||||||||||||||||||||||         ]Proc N=0| At the 18th looking for 1001.085
Proc N=0| << at .//processor0/
0 This should not be constant :1001.085
Proc N=3| At the 18th looking for 1001.085
Proc N=3| << at .//processor3/
Proc N=2| At the 18th looking for 1001.085
Proc N=2| << at .//processor2/
Proc N=1| At the 19th looking for 1001.09
Proc N=1| << at .//processor1/
 90% [||||||||||||||||||||||||||||||||||||||||||||||||||||||      ]Proc N=0| At the 19th looking for 1001.09
Proc N=0| << at .//processor0/
0 This should not be constant :1001.09
Proc N=3| At the 19th looking for 1001.09
Proc N=3| << at .//processor3/
Proc N=2| At the 19th looking for 1001.09
Proc N=2| << at .//processor2/
Proc N=1| At the 20th looking for 1001.095
Proc N=1| << at .//processor1/
 95% [|||||||||||||||||||||||||||||||||||||||||||||||||||||||||   ]Proc N=0| At the 20th looking for 1001.095
Proc N=0| << at .//processor0/
0 This should not be constant :1001.095
Proc N=3| At the 20th looking for 1001.095
Proc N=3| << at .//processor3/
Proc N=2| At the 20th looking for 1001.095
Proc N=2| << at .//processor2/
100% [||||||||||||||||||||||||||||||||||||||||||||||||||||||||||||]
Adding the square block [30:39]x[10:19] to the covariance matrix
in dot_product_POD getMassmatrix
in dot_product, if L2
In getmassmatrix 1234
In nModes == 0
1019.82 1019.84 1019.86 1019.87 1019.88  1019.9 1019.91 1019.92 1019.93 1019.93
1019.79 1019.81 1019.83 1019.84 1019.86 1019.87 1019.88 1019.89  1019.9 1019.91
1019.76 1019.78  1019.8 1019.82 1019.83 1019.85 1019.86 1019.87 1019.88 1019.89
1019.73 1019.75 1019.77 1019.79  1019.8 1019.82 1019.83 1019.85 1019.86 1019.87
 1019.7 1019.72 1019.74 1019.76 1019.77 1019.79 1019.81 1019.82 1019.83 1019.85
1019.66 1019.68  1019.7 1019.72 1019.74 1019.76 1019.78 1019.79 1019.81 1019.82
1019.63 1019.65 1019.67 1019.69 1019.71 1019.73 1019.75 1019.77 1019.78  1019.8
1019.59 1019.61 1019.64 1019.66 1019.68  1019.7 1019.72 1019.74 1019.75 1019.77
1019.55 1019.58  1019.6 1019.62 1019.65 1019.67 1019.69 1019.71 1019.72 1019.74
Computation passed
Reducing
16.1416 16.1483  16.155 16.1616 16.1682 16.1746  16.181 16.1873 16.1936 16.1998
16.1453 16.1521 16.1589 16.1656 16.1722 16.1787 16.1852 16.1916 16.1979 16.2042
 16.149 16.1559 16.1627 16.1695 16.1762 16.1828 16.1893 16.1958 16.2022 16.2085
16.1526 16.1595 16.1665 16.1733 16.1801 16.1867 16.1934 16.1999 16.2064 16.2128
16.1561 16.1631 16.1701  16.177 16.1839 16.1906 16.1973 16.2039 16.2105 16.2169
16.1595 16.1667 16.1737 16.1807 16.1876 16.1944 16.2012 16.2079 16.2145 16.2211
16.1629 16.1701 16.1772 16.1843 16.1913 16.1982  16.205 16.2118 16.2185 16.2251
16.1662 16.1735 16.1807 16.1878 16.1949 16.2018 16.2088 16.2156 16.2224  16.229
16.1694 16.1768 16.1841 16.1913 16.1984 16.2054 16.2124 16.2193 16.2262 16.2329
 243.21  243.21  243.21 243.211 243.211 243.211 243.212 243.212 243.212 243.212
 243.21  243.21 243.211 243.211 243.211 243.212 243.212 243.212 243.212 243.213
 243.21 243.211 243.211 243.211 243.211 243.212 243.212 243.212 243.213 243.213
 243.21 243.211 243.211 243.211 243.212 243.212 243.212 243.213 243.213 243.213
243.211 243.211 243.211 243.212 243.212 243.212 243.213 243.213 243.213 243.213
243.211 243.211 243.212 243.212 243.212 243.212 243.213 243.213 243.213 243.214
243.211 243.211 243.212 243.212 243.212 243.213 243.213 243.213 243.214 243.214
243.211 243.212 243.212 243.212 243.213 243.213 243.213 243.213 243.214 243.214
243.212 243.212 243.212 243.213 243.213 243.213 243.213 243.214 243.214 243.214
7.13099 7.13197 7.13295 7.13391 7.13487 7.13581 7.13675 7.13768 7.13859  7.1395
 7.1314  7.1324 7.13339 7.13437 7.13535 7.13631 7.13727 7.13821 7.13914 7.14007
7.13179 7.13281 7.13382 7.13482 7.13582  7.1368 7.13777 7.13873 7.13968 7.14063
7.13218 7.13322 7.13424 7.13526 7.13627 7.13727 7.13826 7.13924 7.14021 7.14117
[...]
/home/fregnault/Code/ITHACA-FV/tutorials/CFD/01bisPODCompare/processor1/1001.02
In read_snapshot
Reading path
/home/fregnault/Code/ITHACA-FV/tutorials/CFD/01bisPODCompare/processor0/1001.02
In read_snapshot
Reading path
/home/fregnault/Code/ITHACA-FV/tutorials/CFD/01bisPODCompare/processor3/1001.02
In read_snapshot
Reading path
/home/fregnault/Code/ITHACA-FV/tutorials/CFD/01bisPODCompare/processor2/1001.025
In read_snapshot
Reading path
/home/fregnault/Code/ITHACA-FV/tutorials/CFD/01bisPODCompare/processor1/1001.025
In read_snapshot
Reading path
/home/fregnault/Code/ITHACA-FV/tutorials/CFD/01bisPODCompare/processor0/1001.025
In read_snapshot
Reading path
/home/fregnault/Code/ITHACA-FV/tutorials/CFD/01bisPODCompare/processor3/1001.025
In read_snapshot
Reading path
/home/fregnault/Code/ITHACA-FV/tutorials/CFD/01bisPODCompare/processor0/1001.03
In read_snapshot
Reading path
/home/fregnault/Code/ITHACA-FV/tutorials/CFD/01bisPODCompare/processor2/1001.03
In read_snapshot
Reading path
/home/fregnault/Code/ITHACA-FV/tutorials/CFD/01bisPODCompare/processor1/1001.03
In read_snapshot
Reading path
/home/fregnault/Code/ITHACA-FV/tutorials/CFD/01bisPODCompare/processor3/1001.03
In read_snapshot
Reading path
/home/fregnault/Code/ITHACA-FV/tutorials/CFD/01bisPODCompare/processor0/1001.035
In read_snapshot
Reading path
/home/fregnault/Code/ITHACA-FV/tutorials/CFD/01bisPODCompare/processor2/1001.035
In read_snapshot
Reading path
/home/fregnault/Code/ITHACA-FV/tutorials/CFD/01bisPODCompare/processor3/1001.035
In read_snapshot
Reading path
/home/fregnault/Code/ITHACA-FV/tutorials/CFD/01bisPODCompare/processor1/1001.035
In read_snapshot
Reading path
/home/fregnault/Code/ITHACA-FV/tutorials/CFD/01bisPODCompare/processor0/1001.04
In read_snapshot
Reading path
/home/fregnault/Code/ITHACA-FV/tutorials/CFD/01bisPODCompare/processor1/1001.04
In read_snapshot
Reading path
/home/fregnault/Code/ITHACA-FV/tutorials/CFD/01bisPODCompare/processor3/1001.04
In read_snapshot
Reading path
/home/fregnault/Code/ITHACA-FV/tutorials/CFD/01bisPODCompare/processor2/1001.04
In read_snapshot
Reading path
/home/fregnault/Code/ITHACA-FV/tutorials/CFD/01bisPODCompare/processor0/1001.045
In read_snapshot
Reading path
/home/fregnault/Code/ITHACA-FV/tutorials/CFD/01bisPODCompare/processor2/1001.045
In read_snapshot
Reading path
/home/fregnault/Code/ITHACA-FV/tutorials/CFD/01bisPODCompare/processor1/1001.045
In read_snapshot
Reading path
/home/fregnault/Code/ITHACA-FV/tutorials/CFD/01bisPODCompare/processor3/1001.045
In read_snapshot
Reading path
/home/fregnault/Code/ITHACA-FV/tutorials/CFD/01bisPODCompare/processor0/1001.05
In read_snapshot
Reading path
/home/fregnault/Code/ITHACA-FV/tutorials/CFD/01bisPODCompare/processor3/1001.05
In read_snapshot
Reading path
/home/fregnault/Code/ITHACA-FV/tutorials/CFD/01bisPODCompare/processor2/1001.05
In read_snapshot
Reading path
/home/fregnault/Code/ITHACA-FV/tutorials/CFD/01bisPODCompare/processor1/1001.05
In read_snapshot
Reading path
/home/fregnault/Code/ITHACA-FV/tutorials/CFD/01bisPODCompare/processor2/1001.055
In read_snapshot
Reading path
/home/fregnault/Code/ITHACA-FV/tutorials/CFD/01bisPODCompare/processor0/1001.055
In read_snapshot
Reading path
/home/fregnault/Code/ITHACA-FV/tutorials/CFD/01bisPODCompare/processor3/1001.055
In read_snapshot
Reading path
/home/fregnault/Code/ITHACA-FV/tutorials/CFD/01bisPODCompare/processor1/1001.055
In read_snapshot
Reading path
/home/fregnault/Code/ITHACA-FV/tutorials/CFD/01bisPODCompare/processor0/1001.06
In read_snapshot
Reading path
/home/fregnault/Code/ITHACA-FV/tutorials/CFD/01bisPODCompare/processor3/1001.06
In read_snapshot
Reading path
/home/fregnault/Code/ITHACA-FV/tutorials/CFD/01bisPODCompare/processor1/1001.06
In read_snapshot
Reading path
/home/fregnault/Code/ITHACA-FV/tutorials/CFD/01bisPODCompare/processor2/1001.06
In read_snapshot
Reading path
/home/fregnault/Code/ITHACA-FV/tutorials/CFD/01bisPODCompare/processor2/1001.065
In read_snapshot
Reading path
/home/fregnault/Code/ITHACA-FV/tutorials/CFD/01bisPODCompare/processor0/1001.065
In read_snapshot
Reading path
/home/fregnault/Code/ITHACA-FV/tutorials/CFD/01bisPODCompare/processor1/1001.065
In read_snapshot
Reading path
/home/fregnault/Code/ITHACA-FV/tutorials/CFD/01bisPODCompare/processor3/1001.065
In read_snapshot
Reading path
/home/fregnault/Code/ITHACA-FV/tutorials/CFD/01bisPODCompare/processor0/1001.07
In read_snapshot
Reading path
/home/fregnault/Code/ITHACA-FV/tutorials/CFD/01bisPODCompare/processor3/1001.07
In read_snapshot
Reading path
/home/fregnault/Code/ITHACA-FV/tutorials/CFD/01bisPODCompare/processor1/1001.07
In read_snapshot
Reading path
/home/fregnault/Code/ITHACA-FV/tutorials/CFD/01bisPODCompare/processor2/1001.07
In read_snapshot
Reading path
/home/fregnault/Code/ITHACA-FV/tutorials/CFD/01bisPODCompare/processor3/1001.075
In read_snapshot
Reading path
/home/fregnault/Code/ITHACA-FV/tutorials/CFD/01bisPODCompare/processor1/1001.075
In read_snapshot
Reading path
/home/fregnault/Code/ITHACA-FV/tutorials/CFD/01bisPODCompare/processor0/1001.075
In read_snapshot
Reading path
/home/fregnault/Code/ITHACA-FV/tutorials/CFD/01bisPODCompare/processor2/1001.075
In read_snapshot
Reading path
/home/fregnault/Code/ITHACA-FV/tutorials/CFD/01bisPODCompare/processor0/1001.08
In read_snapshot
Reading path
/home/fregnault/Code/ITHACA-FV/tutorials/CFD/01bisPODCompare/processor3/1001.08
In read_snapshot
Reading path
/home/fregnault/Code/ITHACA-FV/tutorials/CFD/01bisPODCompare/processor1/1001.08
In read_snapshot
Reading path
/home/fregnault/Code/ITHACA-FV/tutorials/CFD/01bisPODCompare/processor2/1001.08
In read_snapshot
Reading path
/home/fregnault/Code/ITHACA-FV/tutorials/CFD/01bisPODCompare/processor1/1001.085
In read_snapshot
Reading path
/home/fregnault/Code/ITHACA-FV/tutorials/CFD/01bisPODCompare/processor0/1001.085
In read_snapshot
Reading path
/home/fregnault/Code/ITHACA-FV/tutorials/CFD/01bisPODCompare/processor3/1001.085
In read_snapshot
Reading path
/home/fregnault/Code/ITHACA-FV/tutorials/CFD/01bisPODCompare/processor2/1001.085
In read_snapshot
Reading path
/home/fregnault/Code/ITHACA-FV/tutorials/CFD/01bisPODCompare/processor3/1001.09
In read_snapshot
Reading path
/home/fregnault/Code/ITHACA-FV/tutorials/CFD/01bisPODCompare/processor1/1001.09
In read_snapshot
Reading path
/home/fregnault/Code/ITHACA-FV/tutorials/CFD/01bisPODCompare/processor2/1001.09
In read_snapshot
Reading path
/home/fregnault/Code/ITHACA-FV/tutorials/CFD/01bisPODCompare/processor0/1001.09
In read_snapshot
Reading path
/home/fregnault/Code/ITHACA-FV/tutorials/CFD/01bisPODCompare/processor1/1001.095
In read_snapshot
Reading path
/home/fregnault/Code/ITHACA-FV/tutorials/CFD/01bisPODCompare/processor3/1001.095
In read_snapshot
Reading path
/home/fregnault/Code/ITHACA-FV/tutorials/CFD/01bisPODCompare/processor2/1001.095
In read_snapshot
Reading path
/home/fregnault/Code/ITHACA-FV/tutorials/CFD/01bisPODCompare/processor0/1001.095
In read_snapshot
Reading path
/home/fregnault/Code/ITHACA-FV/tutorials/CFD/01bisPODCompare/processor3/1001.1
In read_snapshot
Reading path
/home/fregnault/Code/ITHACA-FV/tutorials/CFD/01bisPODCompare/processor1/1001.1
In read_snapshot
Reading path
/home/fregnault/Code/ITHACA-FV/tutorials/CFD/01bisPODCompare/processor2/1001.1
In read_snapshot
Reading path
/home/fregnault/Code/ITHACA-FV/tutorials/CFD/01bisPODCompare/processor0/1001.1
In read_snapshot
Reading path
/home/fregnault/Code/ITHACA-FV/tutorials/CFD/01bisPODCompare/processor0/1001.105
In read_snapshot
Reading path
/home/fregnault/Code/ITHACA-FV/tutorials/CFD/01bisPODCompare/processor1/1001.105
In read_snapshot
Reading path
/home/fregnault/Code/ITHACA-FV/tutorials/CFD/01bisPODCompare/processor3/1001.105
In read_snapshot
Reading path
/home/fregnault/Code/ITHACA-FV/tutorials/CFD/01bisPODCompare/processor2/1001.105
In read_snapshot
Reading path
/home/fregnault/Code/ITHACA-FV/tutorials/CFD/01bisPODCompare/processor0/1001.11
In read_snapshot
Reading path
/home/fregnault/Code/ITHACA-FV/tutorials/CFD/01bisPODCompare/processor1/1001.11
In read_snapshot
Reading path
/home/fregnault/Code/ITHACA-FV/tutorials/CFD/01bisPODCompare/processor3/1001.11
In read_snapshot
Reading path
/home/fregnault/Code/ITHACA-FV/tutorials/CFD/01bisPODCompare/processor2/1001.11
In read_snapshot
Reading path
/home/fregnault/Code/ITHACA-FV/tutorials/CFD/01bisPODCompare/processor2/1001.115
In read_snapshot
Reading path
/home/fregnault/Code/ITHACA-FV/tutorials/CFD/01bisPODCompare/processor3/1001.115
In read_snapshot
Reading path
/home/fregnault/Code/ITHACA-FV/tutorials/CFD/01bisPODCompare/processor0/1001.115
In read_snapshot
Reading path
/home/fregnault/Code/ITHACA-FV/tutorials/CFD/01bisPODCompare/processor1/1001.115
In read_snapshot
Reading path
/home/fregnault/Code/ITHACA-FV/tutorials/CFD/01bisPODCompare/processor2/1001.12
In read_snapshot
Reading path
/home/fregnault/Code/ITHACA-FV/tutorials/CFD/01bisPODCompare/processor3/1001.12
In read_snapshot
Reading path
/home/fregnault/Code/ITHACA-FV/tutorials/CFD/01bisPODCompare/processor0/1001.12
In read_snapshot
Reading path
/home/fregnault/Code/ITHACA-FV/tutorials/CFD/01bisPODCompare/processor1/1001.12
In read_snapshot
Reading path
/home/fregnault/Code/ITHACA-FV/tutorials/CFD/01bisPODCompare/processor3/1001.125
In read_snapshot
Reading path
/home/fregnault/Code/ITHACA-FV/tutorials/CFD/01bisPODCompare/processor1/1001.125
In read_snapshot
Reading path
/home/fregnault/Code/ITHACA-FV/tutorials/CFD/01bisPODCompare/processor0/1001.125
In read_snapshot
Reading path
/home/fregnault/Code/ITHACA-FV/tutorials/CFD/01bisPODCompare/processor2/1001.125
In read_snapshot
Reading path
/home/fregnault/Code/ITHACA-FV/tutorials/CFD/01bisPODCompare/processor0/1001.13
In read_snapshot
Reading path
/home/fregnault/Code/ITHACA-FV/tutorials/CFD/01bisPODCompare/processor3/1001.13
In read_snapshot
Reading path
/home/fregnault/Code/ITHACA-FV/tutorials/CFD/01bisPODCompare/processor2/1001.13
In read_snapshot
Reading path
/home/fregnault/Code/ITHACA-FV/tutorials/CFD/01bisPODCompare/processor1/1001.13
In read_snapshot
Reading path
/home/fregnault/Code/ITHACA-FV/tutorials/CFD/01bisPODCompare/processor1/1001.135
In read_snapshot
Reading path
/home/fregnault/Code/ITHACA-FV/tutorials/CFD/01bisPODCompare/processor2/1001.135
In read_snapshot
Reading path
/home/fregnault/Code/ITHACA-FV/tutorials/CFD/01bisPODCompare/processor3/1001.135
In read_snapshot
Reading path
/home/fregnault/Code/ITHACA-FV/tutorials/CFD/01bisPODCompare/processor0/1001.135
In read_snapshot
Reading path
/home/fregnault/Code/ITHACA-FV/tutorials/CFD/01bisPODCompare/processor1/1001.14
In read_snapshot
Reading path
/home/fregnault/Code/ITHACA-FV/tutorials/CFD/01bisPODCompare/processor2/1001.14
In read_snapshot
Reading path
/home/fregnault/Code/ITHACA-FV/tutorials/CFD/01bisPODCompare/processor3/1001.14
In read_snapshot
Reading path
/home/fregnault/Code/ITHACA-FV/tutorials/CFD/01bisPODCompare/processor0/1001.14
In read_snapshot
Reading path
/home/fregnault/Code/ITHACA-FV/tutorials/CFD/01bisPODCompare/processor0/1001.145
In read_snapshot
Reading path
/home/fregnault/Code/ITHACA-FV/tutorials/CFD/01bisPODCompare/processor3/1001.145
In read_snapshot
Reading path
/home/fregnault/Code/ITHACA-FV/tutorials/CFD/01bisPODCompare/processor1/1001.145
In read_snapshot
Reading path
/home/fregnault/Code/ITHACA-FV/tutorials/CFD/01bisPODCompare/processor2/1001.145
In read_snapshot
Reading path
/home/fregnault/Code/ITHACA-FV/tutorials/CFD/01bisPODCompare/processor0/1001.15
In read_snapshot
Reading path
/home/fregnault/Code/ITHACA-FV/tutorials/CFD/01bisPODCompare/processor3/1001.15
In read_snapshot
Reading path
/home/fregnault/Code/ITHACA-FV/tutorials/CFD/01bisPODCompare/processor1/1001.15
In read_snapshot
Reading path
/home/fregnault/Code/ITHACA-FV/tutorials/CFD/01bisPODCompare/processor2/1001.15
In read_snapshot
Reading path
/home/fregnault/Code/ITHACA-FV/tutorials/CFD/01bisPODCompare/processor3/1001.155
In read_snapshot
Reading path
/home/fregnault/Code/ITHACA-FV/tutorials/CFD/01bisPODCompare/processor2/1001.155
In read_snapshot
Reading path
/home/fregnault/Code/ITHACA-FV/tutorials/CFD/01bisPODCompare/processor1/1001.155
In read_snapshot
Reading path
/home/fregnault/Code/ITHACA-FV/tutorials/CFD/01bisPODCompare/processor0/1001.155
In read_snapshot
Reading path
/home/fregnault/Code/ITHACA-FV/tutorials/CFD/01bisPODCompare/processor0/1001.16
In read_snapshot
Reading path
/home/fregnault/Code/ITHACA-FV/tutorials/CFD/01bisPODCompare/processor2/1001.16
In read_snapshot
Reading path
/home/fregnault/Code/ITHACA-FV/tutorials/CFD/01bisPODCompare/processor1/1001.16
In read_snapshot
Reading path
/home/fregnault/Code/ITHACA-FV/tutorials/CFD/01bisPODCompare/processor3/1001.16
In read_snapshot
Reading path
/home/fregnault/Code/ITHACA-FV/tutorials/CFD/01bisPODCompare/processor0/1001.165
In read_snapshot
Reading path
/home/fregnault/Code/ITHACA-FV/tutorials/CFD/01bisPODCompare/processor2/1001.165
In read_snapshot
Reading path
/home/fregnault/Code/ITHACA-FV/tutorials/CFD/01bisPODCompare/processor1/1001.165
In read_snapshot
Reading path
/home/fregnault/Code/ITHACA-FV/tutorials/CFD/01bisPODCompare/processor3/1001.165
In read_snapshot
Reading path
/home/fregnault/Code/ITHACA-FV/tutorials/CFD/01bisPODCompare/processor1/1001.17
In read_snapshot
Reading path
/home/fregnault/Code/ITHACA-FV/tutorials/CFD/01bisPODCompare/processor0/1001.17
In read_snapshot
Reading path
/home/fregnault/Code/ITHACA-FV/tutorials/CFD/01bisPODCompare/processor2/1001.17
In read_snapshot
Reading path
/home/fregnault/Code/ITHACA-FV/tutorials/CFD/01bisPODCompare/processor3/1001.17
In read_snapshot
Reading path
/home/fregnault/Code/ITHACA-FV/tutorials/CFD/01bisPODCompare/processor3/1001.175
In read_snapshot
Reading path
/home/fregnault/Code/ITHACA-FV/tutorials/CFD/01bisPODCompare/processor2/1001.175
In read_snapshot
Reading path
/home/fregnault/Code/ITHACA-FV/tutorials/CFD/01bisPODCompare/processor1/1001.175
In read_snapshot
Reading path
/home/fregnault/Code/ITHACA-FV/tutorials/CFD/01bisPODCompare/processor0/1001.175
In read_snapshot
Reading path
/home/fregnault/Code/ITHACA-FV/tutorials/CFD/01bisPODCompare/processor2/1001.18
In read_snapshot
Reading path
/home/fregnault/Code/ITHACA-FV/tutorials/CFD/01bisPODCompare/processor1/1001.18
In read_snapshot
Reading path
/home/fregnault/Code/ITHACA-FV/tutorials/CFD/01bisPODCompare/processor0/1001.18
In read_snapshot
Reading path
/home/fregnault/Code/ITHACA-FV/tutorials/CFD/01bisPODCompare/processor3/1001.18
In read_snapshot
Reading path
/home/fregnault/Code/ITHACA-FV/tutorials/CFD/01bisPODCompare/processor0/1001.185
In read_snapshot
Reading path
/home/fregnault/Code/ITHACA-FV/tutorials/CFD/01bisPODCompare/processor1/1001.185
In read_snapshot
Reading path
/home/fregnault/Code/ITHACA-FV/tutorials/CFD/01bisPODCompare/processor3/1001.185
In read_snapshot
Reading path
/home/fregnault/Code/ITHACA-FV/tutorials/CFD/01bisPODCompare/processor2/1001.185
In read_snapshot
Reading path
/home/fregnault/Code/ITHACA-FV/tutorials/CFD/01bisPODCompare/processor1/1001.19
In read_snapshot
Reading path
/home/fregnault/Code/ITHACA-FV/tutorials/CFD/01bisPODCompare/processor0/1001.19
In read_snapshot
Reading path
/home/fregnault/Code/ITHACA-FV/tutorials/CFD/01bisPODCompare/processor3/1001.19
In read_snapshot
Reading path
/home/fregnault/Code/ITHACA-FV/tutorials/CFD/01bisPODCompare/processor2/1001.19
In read_snapshot
Reading path
/home/fregnault/Code/ITHACA-FV/tutorials/CFD/01bisPODCompare/processor1/1001.195
In read_snapshot
Reading path
/home/fregnault/Code/ITHACA-FV/tutorials/CFD/01bisPODCompare/processor2/1001.195
In read_snapshot
Reading path
/home/fregnault/Code/ITHACA-FV/tutorials/CFD/01bisPODCompare/processor3/1001.195
In read_snapshot
Reading path
/home/fregnault/Code/ITHACA-FV/tutorials/CFD/01bisPODCompare/processor0/1001.195
In read_snapshot
Reading path
/home/fregnault/Code/ITHACA-FV/tutorials/CFD/01bisPODCompare/processor3/1001.2
In read_snapshot
Reading path
/home/fregnault/Code/ITHACA-FV/tutorials/CFD/01bisPODCompare/processor0/1001.2
In read_snapshot
Reading path
/home/fregnault/Code/ITHACA-FV/tutorials/CFD/01bisPODCompare/processor2/1001.2
In read_snapshot
Reading path
/home/fregnault/Code/ITHACA-FV/tutorials/CFD/01bisPODCompare/processor1/1001.2
######### Exporting the Data for p #########
./ITHACAoutput/spatialModes_4modes//processor0/1/p
./ITHACAoutput/spatialModes_4modes//processor1/1/p
./ITHACAoutput/spatialModes_4modes//processor2/1/p
./ITHACAoutput/spatialModes_4modes//processor3/1/p
 25% [|||||||||||||||                                             ]./ITHACAoutput/spatialModes_4modes//processor0/2/p
./ITHACAoutput/spatialModes_4modes//processor3/2/p
./ITHACAoutput/spatialModes_4modes//processor2/2/p
./ITHACAoutput/spatialModes_4modes//processor1/2/p
 50% [||||||||||||||||||||||||||||||                              ]./ITHACAoutput/spatialModes_4modes//processor3/3/p
./ITHACAoutput/spatialModes_4modes//processor0/3/p
./ITHACAoutput/spatialModes_4modes//processor1/3/p
./ITHACAoutput/spatialModes_4modes//processor2/3/p
 75% [|||||||||||||||||||||||||||||||||||||||||||||               ]./ITHACAoutput/spatialModes_4modes//processor3/4/p
./ITHACAoutput/spatialModes_4modes//processor1/4/p
./ITHACAoutput/spatialModes_4modes//processor0/4/p
./ITHACAoutput/spatialModes_4modes//processor2/4/p

In read_snapshot
Reading path
/home/fregnault/Code/ITHACA-FV/tutorials/CFD/01bisPODCompare/processor1/1001.2

In read_snapshot
Reading path
/home/fregnault/Code/ITHACA-FV/tutorials/CFD/01bisPODCompare/processor3/1001.2
100% [||||||||||||||||||||||||||||||||||||||||||||||||||||||||||||]

Computing the temporal modes of the p field

Computing the Simulation temporal modes of the p field
In read_snapshot
Reading path
/home/fregnault/Code/ITHACA-FV/tutorials/CFD/01bisPODCompare/processor0/1001.2

In read_snapshot
Reading path
/home/fregnault/Code/ITHACA-FV/tutorials/CFD/01bisPODCompare/processor2/1001.2
in dot_product_L2 scalar scalar1in dot_product_L2 scalar scalar1in dot_product_L2 scalar scalar1in dot_product_L2 scalar scalar1
-------------------------------------------------------------------------------------------
*********************************************************
POD-RL for the pressure took 17.8021 s
*********************************************************
Performing POD for p using the L2 norm
in dot_product_L2 scalar scalar1in dot_product_L2 scalar scalar1in dot_product_L2 scalar scalar1in dot_product_L2 scalar scalar1Using Spectra EigenSolver 
in dot_product_L2 scalar scalar1in dot_product_L2 scalar scalar1in dot_product_L2 scalar scalar1in dot_product_L2 scalar scalar1Using Spectra EigenSolver 
####### Performing the POD using EigenDecomposition p #######
Using Spectra EigenSolver 
####### End of the POD for p #######
in dot_product_L2 scalar scalar1in dot_product_L2 scalar scalar1in dot_product_L2 scalar scalar1in dot_product_L2 scalar scalar1Using Spectra EigenSolver 
  13.1108
   0.5721
0.0745727
0.0206224
  13.1108
   0.5721
0.0745727
0.0206224
  13.1108
   0.5721
0.0745727
0.0206224
  13.1108
   0.5721
0.0745727
0.0206224
####### Saving the POD bases for p #######
######### Exporting the Data for p #########
./ITHACAoutput/POD//processor2/1/p
./ITHACAoutput/POD//processor3/1/p
./ITHACAoutput/POD//processor1/1/p
./ITHACAoutput/POD//processor0/1/p
 25% [|||||||||||||||                                             ]./ITHACAoutput/POD//processor0/2/p
./ITHACAoutput/POD//processor2/2/p
./ITHACAoutput/POD//processor1/2/p
./ITHACAoutput/POD//processor3/2/p
 50% [||||||||||||||||||||||||||||||                              ]./ITHACAoutput/POD//processor0/3/p
./ITHACAoutput/POD//processor2/3/p
./ITHACAoutput/POD//processor1/3/p
./ITHACAoutput/POD//processor3/3/p
./ITHACAoutput/POD//processor2/4/p
./ITHACAoutput/POD//processor1/4/p
 75% [|||||||||||||||||||||||||||||||||||||||||||||               ]./ITHACAoutput/POD//processor3/4/p
./ITHACAoutput/POD//processor0/4/p



100% [||||||||||||||||||||||||||||||||||||||||||||||||||||||||||||]

End

Finalising parallel run
